geometry optimzed in LAMMPS
_audit_creation_date              2020-12-01 
_audit_creation_method            'lammps2cif' 
_symmetry_space_group_name_H-M    'P1' 
_symmetry_Int_Tables_number       1 
_symmetry_cell_setting            triclinic 
loop_ 
_symmetry_equiv_pos_as_xyz 
  x,y,z 
_cell_length_a                    29.13292645 
_cell_length_b                    44.74568578087264 
_cell_length_c                    29.43300562009479 
_cell_angle_alpha                 90.48856788184462 
_cell_angle_beta                  107.82692055333474 
_cell_angle_gamma                 90.01987049194979 
loop_ 
_atom_site_label 
_atom_site_type_symbol 
_atom_site_fract_x 
_atom_site_fract_y 
_atom_site_fract_z 
_atom_site_charge 
O1          O  0.82076317  0.96356754  0.97630731    -0.81300
C2          C  0.66162268  0.89284765  0.87103949     0.98100
O3          O  0.70350388  0.89149849  0.86648377    -0.70400
O4          O  0.73966964  0.94227410  0.85142957    -0.74000
Al5        Al  0.76292520  0.91277334  0.89834148     1.49000
C6          C  0.74452671  0.97020937  0.85519009     0.93300
O7          O  0.68711467  0.98122664  0.93844216    -0.80200
O8          O  0.74448793  0.91803529  0.03127435    -0.73800
Al9        Al  0.75346723  0.96980586  0.95670605     1.90100
O10         O  0.66359367  0.94416625  0.97389617    -0.72900
O11         O  0.73016610  0.87411375  0.96876936    -0.72700
O12         O  0.65551416  0.90331404  0.90870691    -0.78400
O13         O  0.78945727  0.87889949  0.93871173    -0.76600
O14         O  0.73994388  0.93127309  0.94112306    -1.12700
O15         O  0.82591301  0.93219236  0.92014884    -0.71900
C16         C  0.84491181  0.95170873  0.95202072     0.98800
C17         C  0.65597372  0.96921562  0.95418710     0.95200
Al18       Al  0.70204144  0.91154367  0.96821630     1.55600
O19         O  0.75407304  0.98267352  0.89545466    -0.76500
C20         C  0.76643782  0.86339444  0.96028757     0.99400
C21         C  0.75730084  0.94368804  0.04894434     0.94300
O22         O  0.75662920  0.96569284  0.02211187    -0.81800
O23         O  0.75439471  0.54409660  0.96428608    -0.81300
C24         C  0.85019160  0.61186904  0.12527276     0.98100
O25         O  0.84714743  0.62007636  0.08323535    -0.70400
O26         O  0.87394025  0.57422630  0.04614483    -0.74000
Al27       Al  0.82027931  0.59836677  0.02378708     1.49000
C28         C  0.87768900  0.54674370  0.04010133     0.93300
O29         O  0.79634287  0.52342896  0.09508204    -0.80200
O30         O  0.68941597  0.58138531  0.04232330    -0.73800
Al31       Al  0.77587730  0.53650702  0.03026288     1.90100
O32         O  0.75050424  0.55430881  0.11940926    -0.72900
O33         O  0.75010854  0.63142530  0.06310809    -0.72700
O34         O  0.81506821  0.59808523  0.13261144    -0.78400
O35         O  0.77074168  0.62628008  0.99839546    -0.76600
O36         O  0.78291310  0.57495870  0.04607662    -1.12700
O37         O  0.80299710  0.58060158  0.96080465    -0.71900
C38         C  0.77363315  0.56024832  0.94032113     0.98800
C39         C  0.77356765  0.53014098  0.12384654     0.95200
Al40       Al  0.75345779  0.59032364  0.08592549     1.55600
O41         O  0.84100118  0.52996587  0.02961345    -0.76500
C42         C  0.75629067  0.64262669  0.02600871     0.99400
C43         C  0.67720597  0.55479577  0.02695873     0.94300
O44         O  0.70928644  0.53567287  0.02659182    -0.81800
O45         O  0.21101343  0.97237114  0.51569597    -0.81300
C46         C  0.34169398  0.89077263  0.61255332     0.98100
O47         O  0.30644999  0.90488871  0.61914407    -0.70400
O48         O  0.24646104  0.95015482  0.60723890    -0.74000
Al49       Al  0.24732780  0.91525586  0.57049850     1.49000
C50         C  0.27220373  0.97337052  0.61621132     0.93300
O51         O  0.34478504  0.97411416  0.52509752    -0.80200
O52         O  0.30791127  0.92584331  0.45381698    -0.73800
Al53       Al  0.27810084  0.96945764  0.52250484     1.90100
O54         O  0.37431053  0.92934281  0.54186587    -0.72900
O55         O  0.26828352  0.88038269  0.48301823    -0.72700
O56         O  0.33989279  0.88285346  0.57066510    -0.78400
O57         O  0.24068603  0.87504386  0.54319305    -0.76600
O58         O  0.28122088  0.93058170  0.53511311    -1.12700
O59         O  0.18585785  0.92696329  0.52496398    -0.71900
C60         C  0.17672959  0.95410283  0.51190804     0.98800
C61         C  0.38031179  0.95643527  0.53498771     0.95200
Al62       Al  0.31912778  0.90664256  0.51394017     1.55600
O63         O  0.29572346  0.98122633  0.58859462    -0.76500
C64         C  0.24866013  0.86418932  0.50643957     0.99400
C65         C  0.28073660  0.94678991  0.43312670     0.94300
O66         O  0.25954003  0.96301857  0.45562512    -0.81800
O67         O  0.26601634  0.54412695  0.54342339    -0.81300
C68         C  0.17723432  0.60886588  0.37825079     0.98100
O69         O  0.18105451  0.61876252  0.41978959    -0.70400
O70         O  0.14999104  0.57608858  0.46034167    -0.74000
Al71       Al  0.20621583  0.59893005  0.48031462     1.49000
C72         C  0.14397171  0.54901986  0.46766388     0.93300
O73         O  0.22427754  0.51916256  0.41261414    -0.80200
O74         O  0.33483930  0.57524033  0.46298959    -0.73800
Al75       Al  0.24482289  0.53462735  0.47714626     1.90100
O76         O  0.27219927  0.54763803  0.38756711    -0.72900
O77         O  0.27863632  0.62660216  0.43836400    -0.72700
O78         O  0.21086759  0.59305966  0.37159942    -0.78400
O79         O  0.25855166  0.62597574  0.50364203    -0.76600
O80         O  0.24115278  0.57265524  0.45933843    -1.12700
O81         O  0.22206672  0.58376013  0.54375015    -0.71900
C82         C  0.24812869  0.56270112  0.56565047     0.98800
C83         C  0.24794355  0.52402933  0.38394055     0.95200
Al84       Al  0.27184191  0.58484548  0.41875039     1.55600
O85         O  0.17908481  0.53110853  0.47722279    -0.76500
C86         C  0.27375657  0.64012298  0.47447145     0.99400
C87         C  0.34485734  0.54889208  0.47976442     0.94300
O88         O  0.31141708  0.53120788  0.48153487    -0.81800
O89         O  0.68560878  0.45692290  0.50014693    -0.81300
C90         C  0.85758524  0.40043208  0.60799261     0.98100
O91         O  0.81594677  0.39437024  0.61086668    -0.70400
O92         O  0.77064432  0.44168092  0.62737417    -0.74000
Al93       Al  0.75282807  0.41160125  0.57957948     1.49000
C94         C  0.76016518  0.46903324  0.62406146     0.93300
O95         O  0.81297908  0.48754120  0.54211007    -0.80200
O96         O  0.77271893  0.42086489  0.44887447    -0.73800
Al97       Al  0.75024666  0.46982830  0.52209952     1.90100
O98         O  0.84527355  0.45426387  0.50627367    -0.72900
O99         O  0.79600030  0.37760107  0.51187873    -0.72700
O100        O  0.86182721  0.41362308  0.57180952    -0.78400
O101        O  0.73320019  0.37726828  0.53738972    -0.76600
O102        O  0.77241041  0.43296848  0.53789454    -1.12700
O103        O  0.68626934  0.42627251  0.55820593    -0.71900
C104        C  0.66364052  0.44370150  0.52492620     0.98800
C105        C  0.84489033  0.48001945  0.52352486     0.95200
Al106      Al  0.81516720  0.41774231  0.51206018     1.55600
O107        O  0.74521765  0.48107099  0.58357020    -0.76500
C108        C  0.76105106  0.36376366  0.51843137     0.99400
C109        C  0.75762187  0.44586846  0.43080882     0.94300
O110        O  0.75080841  0.46690710  0.45709552    -0.81800
O111        O  0.76866361  0.03966785  0.52890526    -0.81300
C112        C  0.66238739  0.10321925  0.37247926     0.98100
O113        O  0.65804401  0.09274200  0.41046755    -0.70400
O114        O  0.67294538  0.05295910  0.47652761    -0.74000
Al115      Al  0.70512719  0.08858440  0.47015184     1.49000
C116        C  0.67270630  0.02674765  0.46065988     0.93300
O117        O  0.77548563  0.02101457  0.40374509    -0.80200
O118        O  0.83353625  0.07539976  0.42393110    -0.73800
Al119      Al  0.76928011  0.03459576  0.46406144     1.90100
O120        O  0.74899829  0.05865705  0.35659862    -0.72900
O121        O  0.78689685  0.12572344  0.43890689    -0.72700
O122        O  0.70386409  0.10697560  0.36768972    -0.78400
O123        O  0.72694426  0.12825969  0.46902140    -0.76600
O124        O  0.74736139  0.07127375  0.44512143    -1.12700
O125        O  0.74679844  0.08616423  0.53369514    -0.71900
C126        C  0.76230748  0.06172350  0.55347133     0.98800
C127        C  0.76314435  0.03204283  0.36244047     0.95200
Al128      Al  0.76685791  0.09020888  0.40101318     1.55600
O129        O  0.70619577  0.01739268  0.44546213    -0.76500
C130        C  0.76148570  0.14044056  0.45909956     0.99400
C131        C  0.85626741  0.05876307  0.45842016     0.94300
O132        O  0.83433267  0.04712858  0.48477329    -0.81800
O133        O  0.24314123  0.04478988  0.95249445    -0.81300
C134        C  0.34093199  0.11134404  0.11611710     0.98100
O135        O  0.34147799  0.11764625  0.07448895    -0.70400
O136        O  0.36645029  0.06869784  0.04145005    -0.74000
Al137      Al  0.31560131  0.09563687  0.01600442     1.49000
C138        C  0.36547215  0.04185551  0.02862069     0.93300
O139        O  0.28156291  0.02290112  0.08395640    -0.80200
O140        O  0.17962237  0.08323795  0.02841807    -0.73800
Al141      Al  0.26299202  0.03608083  0.01881898     1.90100
O142        O  0.23886373  0.05642989  0.10765507    -0.72900
O143        O  0.24188088  0.13128676  0.04823207    -0.72700
O144        O  0.30395204  0.09896274  0.12178130    -0.78400
O145        O  0.27043447  0.12572109  0.98832343    -0.76600
O146        O  0.27361711  0.07438275  0.03551016    -1.12700
O147        O  0.29925319  0.07767015  0.95367808    -0.71900
C148        C  0.26710647  0.05940210  0.93090671     0.98800
C149        C  0.26165021  0.03210710  0.11412673     0.95200
Al150      Al  0.24332817  0.09134213  0.07319035     1.55600
O151        O  0.32654978  0.02725734  0.01697451    -0.76500
C152        C  0.25157018  0.14207216  0.01259666     0.99400
C153        C  0.16609957  0.05684031  0.01343250     0.94300
O154        O  0.19695217  0.03671670  0.01502235    -0.81800
O155        O  0.33488831  0.45972549  0.00220718    -0.81300
C156        C  0.16157390  0.40582120  0.88754209     0.98100
O157        O  0.20330579  0.39957187  0.88503474    -0.70400
O158        O  0.24874536  0.44783113  0.87354400    -0.74000
Al159      Al  0.26653765  0.41667953  0.91804422     1.49000
C160        C  0.26030042  0.47499831  0.87951379     0.93300
O161        O  0.20835358  0.49128209  0.96364594    -0.80200
O162        O  0.24524846  0.42143503  0.04868374    -0.73800
Al163      Al  0.27042503  0.47300041  0.98164082     1.90100
O164        O  0.17466485  0.45654603  0.99478687    -0.72900
O165        O  0.22131634  0.38054981  0.98005731    -0.72700
O166        O  0.15712340  0.41869374  0.92421611    -0.78400
O167        O  0.28560986  0.38137468  0.95697006    -0.76600
O168        O  0.24719534  0.43667755  0.96163993    -1.12700
O169        O  0.33328655  0.43157430  0.94048194    -0.71900
C170        C  0.35636061  0.44836293  0.97509996     0.98800
C171        C  0.17627556  0.48296224  0.98131753     0.95200
Al172      Al  0.20341870  0.42054269  0.98482644     1.55600
O173        O  0.27577629  0.48607874  0.92110819    -0.76500
C174        C  0.25619656  0.36703627  0.97276596     0.99400
C175        C  0.26083718  0.44580414  0.06987544     0.94300
O176        O  0.26931904  0.46770566  0.04644031    -0.81800
C177        C  0.25677197  0.21850377  0.95784579    -0.13900
C178        C  0.25986630  0.23752294  0.99694865     0.16500
C179        C  0.25599343  0.22486813  0.03957863     0.02800
C180        C  0.24880124  0.19400828  0.04202899    -0.12400
C181        C  0.24738732  0.17482756  0.00359949    -0.03400
C182        C  0.25092679  0.18745993  0.96087687     0.02100
C183        C  0.26153784  0.27069296  0.99138956     0.08900
N184        N  0.26141805  0.24285360  0.08150928     0.65300
H185        H  0.24766233  0.18480312  0.07553073     0.18200
N186        N  0.24818519  0.16914225  0.92005373     0.75700
H187        H  0.25788012  0.22782315  0.92442931     0.09700
C188        C  0.29475334  0.28522501  0.97245094     0.03400
C189        C  0.29324682  0.31658721  0.96715547    -0.05300
C190        C  0.25941659  0.33399660  0.98089365    -0.23700
C191        C  0.22603462  0.31901554  0.99945912     0.12600
C192        C  0.22721671  0.28800672  0.00386826    -0.12900
N193        N  0.33053807  0.26857398  0.95899227     0.64300
H194        H  0.31868044  0.32730616  0.95233216     0.12100
N195        N  0.18966664  0.33468356  0.01342368     0.60900
H196        H  0.20036469  0.27729171  0.01680572     0.08300
O197        O  0.28369714  0.16755068  0.90410524    -0.40500
O198        O  0.20911570  0.15624687  0.89787958    -0.39700
O199        O  0.23295089  0.23948066  0.10592526    -0.39700
O200        O  0.29708415  0.26025786  0.09651408    -0.37400
O201        O  0.14845699  0.33812672  0.98359284    -0.38300
O202        O  0.19555319  0.33960754  0.05710270    -0.34500
O203        O  0.33374878  0.27077898  0.91735001    -0.35900
O204        O  0.36096128  0.25315378  0.98952986    -0.40200
C205        C  0.56505038  0.10730417  0.25168691    -0.13900
C206        C  0.52674900  0.12061174  0.26417505     0.16500
C207        C  0.53469224  0.12984224  0.31200049     0.02800
C208        C  0.57952021  0.12460231  0.34632771    -0.12400
C209        C  0.61763318  0.11109306  0.33389940    -0.03400
C210        C  0.61020910  0.10272178  0.28591200     0.02100
C211        C  0.47765468  0.12172884  0.22812194     0.08900
N212        N  0.49768821  0.14475381  0.32617107     0.65300
H213        H  0.58468136  0.13121149  0.38297064     0.18200
N214        N  0.64653819  0.08691028  0.27227046     0.75700
H215        H  0.55931873  0.09932724  0.21561007     0.09700
C216        C  0.46989780  0.13470674  0.18290731     0.03400
C217        C  0.42450465  0.13234958  0.14817504    -0.05300
C218        C  0.38563894  0.11726548  0.15712358    -0.23700
C219        C  0.39329338  0.10492577  0.20299480     0.12600
C220        C  0.43885047  0.10719992  0.23765361    -0.12900
N221        N  0.50793300  0.15017035  0.17153957     0.64300
H222        H  0.42008040  0.14199827  0.11349270     0.12100
N223        N  0.35634758  0.08837990  0.21429745     0.60900
H224        H  0.44437460  0.09660806  0.27184561     0.08300
O225        O  0.67709863  0.10115820  0.25841852    -0.40500
O226        O  0.64382486  0.05885004  0.26757468    -0.39700
O227        O  0.48698770  0.13609233  0.36237270    -0.39700
O228        O  0.47879226  0.16825270  0.30518505    -0.37400
O229        O  0.36224197  0.06086799  0.22325304    -0.38300
O230        O  0.32262840  0.10211909  0.22395998    -0.34500
O231        O  0.52010512  0.14235205  0.13556336    -0.35900
O232        O  0.52687796  0.17306210  0.19525943    -0.40200
C233        C  0.07502736  0.37913852  0.76784846    -0.13900
C234        C  0.03181398  0.39276645  0.76870830     0.16500
C235        C  0.03088995  0.40867187  0.80991493     0.02800
C236        C  0.07299422  0.41131898  0.84870700    -0.12400
C237        C  0.11701883  0.39886305  0.84737669    -0.03400
C238        C  0.11736344  0.38178798  0.80677956     0.02100
C239        C  0.98824892  0.39114462  0.72597048     0.08900
N240        N  0.98813472  0.42373545  0.81189688     0.65300
H241        H  0.07148035  0.42443175  0.87923956     0.18200
N242        N  0.15985699  0.36649654  0.80475942     0.75700
H243        H  0.07577520  0.36624846  0.73683653     0.09700
C244        C  0.98922593  0.40263738  0.68196279     0.03400
C245        C  0.94682604  0.40363272  0.64347616    -0.05300
C246        C  0.90245648  0.39340860  0.64752211    -0.23700
C247        C  0.90228078  0.37947018  0.69054491     0.12600
C248        C  0.94492063  0.37904615  0.72952539    -0.12900
N249        N  0.03245182  0.41514903  0.67659767     0.64300
H250        H  0.94851099  0.41388401  0.61089534     0.12100
N251        N  0.85986470  0.36513622  0.69508047     0.60900
H252        H  0.94439321  0.36912247  0.76272210     0.08300
O253        O  0.17709516  0.34572853  0.83371705    -0.40500
O254        O  0.17617066  0.37083285  0.77027271    -0.39700
O255        O  0.97160550  0.41909045  0.84615505    -0.39700
O256        O  0.96931075  0.44361056  0.78177455    -0.37400
O257        O  0.84824987  0.36858780  0.73273064    -0.38300
O258        O  0.83920192  0.34501770  0.66554024    -0.34500
O259        O  0.05156639  0.40346807  0.64765026    -0.35900
O260        O  0.04934481  0.43921995  0.69783547    -0.40200
C261        C  0.73033292  0.28009887  0.51338921    -0.13900
C262        C  0.76509990  0.26827033  0.49378274     0.16500
C263        C  0.79497753  0.28828429  0.47897836     0.02800
C264        C  0.78979618  0.31912516  0.48404545    -0.12400
C265        C  0.75678311  0.33114292  0.50577225    -0.03400
C266        C  0.72610291  0.31116608  0.51966083     0.02100
C267        C  0.76831859  0.23522401  0.48665829     0.08900
N268        N  0.83270634  0.27769214  0.46113025     0.65300
H269        H  0.81398994  0.33368072  0.47308760     0.18200
N270        N  0.69087809  0.32187791  0.54055301     0.75700
H271        H  0.70614031  0.26518069  0.52361814     0.09700
C272        C  0.77087975  0.21475131  0.52366503     0.03400
C273        C  0.77027285  0.18385975  0.51441159    -0.05300
C274        C  0.76920242  0.17277746  0.46931559    -0.23700
C275        C  0.76802811  0.19309560  0.43273726     0.12600
C276        C  0.76720730  0.22395241  0.44147028    -0.12900
N277        N  0.77495078  0.22494432  0.57099212     0.64300
H278        H  0.77078206  0.16841230  0.54257403     0.12100
N279        N  0.76325991  0.18272602  0.38541714     0.60900
H280        H  0.76395947  0.23912266  0.41232841     0.08300
O281        O  0.69426484  0.31540524  0.58309657    -0.40500
O282        O  0.65344559  0.33469143  0.51485787    -0.39700
O283        O  0.83820306  0.28881882  0.42386536    -0.39700
O284        O  0.86343283  0.25937279  0.48507490    -0.37400
O285        O  0.72318255  0.17287902  0.35929255    -0.38300
O286        O  0.79725334  0.18660945  0.36788407    -0.34500
O287        O  0.74629324  0.21529205  0.59212700    -0.35900
O288        O  0.80993911  0.24137458  0.59336390    -0.40200
C289        C  0.45072337  0.49567980  0.52841049    -0.13900
C290        C  0.48437294  0.50595248  0.50675366     0.16500
C291        C  0.47322762  0.53220390  0.47883134     0.02800
C292        C  0.42896773  0.54709019  0.47271664    -0.12400
C293        C  0.39509456  0.53650674  0.49405566    -0.03400
C294        C  0.40708460  0.51061881  0.52287359     0.02100
C295        C  0.52919746  0.48784038  0.51165741     0.08900
N296        N  0.50622082  0.54393752  0.45605287     0.65300
H297        H  0.42045136  0.56641649  0.44991575     0.18200
N298        N  0.37472773  0.49849963  0.54598833     0.75700
H299        H  0.45778256  0.47539560  0.54904795     0.09700
C300        C  0.55866806  0.47745910  0.55652857     0.03400
C301        C  0.59939875  0.45970333  0.55936435    -0.05300
C302        C  0.61277666  0.45271497  0.51855472    -0.23700
C303        C  0.58226147  0.46189934  0.47359223     0.12600
C304        C  0.54097988  0.47911291  0.47054594    -0.12900
N305        N  0.54982261  0.48642727  0.59997267     0.64300
H306        H  0.62309178  0.45372298  0.59414094     0.12100
N307        N  0.59303597  0.45405736  0.43066332     0.60900
H308        H  0.51786762  0.48555193  0.43580201     0.08300
O309        O  0.37566085  0.50837583  0.58651688    -0.40500
O310        O  0.35204215  0.47465490  0.53026746    -0.39700
O311        O  0.49206426  0.54931654  0.41191193    -0.39700
O312        O  0.54878247  0.55059450  0.48045539    -0.37400
O313        O  0.60007404  0.42708282  0.42184502    -0.38300
O314        O  0.59320320  0.47382854  0.40038458    -0.34500
O315        O  0.55105444  0.46735316  0.63167113    -0.35900
O316        O  0.54570787  0.51377897  0.60881086    -0.40200
C317        C  0.96068995  0.52202472  0.54434582    -0.13900
C318        C  0.96136104  0.52416620  0.49687795     0.16500
C319        C  0.91936376  0.51725493  0.45904079     0.02800
C320        C  0.87886217  0.50643820  0.46951245    -0.12400
C321        C  0.88010954  0.50129671  0.51675799    -0.03400
C322        C  0.92035853  0.51032933  0.55456014     0.02100
C323        C  0.00739936  0.53069645  0.48771844     0.08900
N324        N  0.91859013  0.51826175  0.41009099     0.65300
H325        H  0.84793916  0.49912023  0.44049796     0.18200
N326        N  0.92252707  0.50517475  0.60305436     0.75700
H327        H  0.99268321  0.52753651  0.57342726     0.09700
C328        C  0.01280580  0.55516368  0.45988717     0.03400
C329        C  0.05653722  0.55903467  0.45013843    -0.05300
C330        C  0.09570157  0.53962924  0.46900688    -0.23700
C331        C  0.08938342  0.51467692  0.49548542     0.12600
C332        C  0.04546846  0.51045494  0.50451327    -0.12900
N333        N  0.97513617  0.57679039  0.44288172     0.64300
H334        H  0.06077168  0.57837624  0.42989089     0.12100
N335        N  0.12781522  0.49427383  0.51559210     0.60900
H336        H  0.04109220  0.49127703  0.52504191     0.08300
O337        O  0.92794342  0.47897880  0.61936706    -0.40500
O338        O  0.92453893  0.52704138  0.63095659    -0.39700
O339        O  0.95019662  0.50452085  0.39685466    -0.39700
O340        O  0.88258107  0.52909632  0.37898675    -0.37400
O341        O  0.15420805  0.49780445  0.55815614    -0.38300
O342        O  0.13137823  0.47071850  0.49306055    -0.34500
O343        O  0.95297365  0.58701062  0.47036220    -0.35900
O344        O  0.96698545  0.58777774  0.40180767    -0.40200
C345        C  0.22209453  0.55581413  0.68388629    -0.13900
C346        C  0.26217318  0.53949289  0.71067951     0.16500
C347        C  0.30064752  0.53430946  0.69187943     0.02800
C348        C  0.29687306  0.54397031  0.64556629    -0.12400
C349        C  0.25512754  0.55835898  0.61730807    -0.03400
C350        C  0.21825928  0.56529054  0.63764088     0.02100
C351        C  0.26028407  0.52521234  0.75538094     0.08900
N352        N  0.34228768  0.51763322  0.71789056     0.65300
H353        H  0.32552421  0.53888421  0.63078635     0.18200
N354        N  0.17479883  0.57964278  0.61051127     0.75700
H355        H  0.19251160  0.55989426  0.69806448     0.09700
C356        C  0.29231077  0.53287699  0.80060534     0.03400
C357        C  0.29065907  0.51691871  0.84101957    -0.05300
C358        C  0.25744992  0.49349677  0.83717937    -0.23700
C359        C  0.22451002  0.48655150  0.79193524     0.12600
C360        C  0.22657692  0.50225378  0.75169283    -0.12900
N361        N  0.32650851  0.55669522  0.80599683     0.64300
H362        H  0.31607590  0.52248816  0.87544651     0.12100
N363        N  0.18822093  0.46397413  0.78629778     0.60900
H364        H  0.20170481  0.49641002  0.71708183     0.08300
O365        O  0.16726920  0.60649780  0.61946392    -0.40500
O366        O  0.14109200  0.56433827  0.58301023    -0.39700
O367        O  0.33751794  0.49175903  0.73263865    -0.39700
O368        O  0.38393889  0.52721917  0.72115448    -0.37400
O369        O  0.15740837  0.46634374  0.80834299    -0.38300
O370        O  0.18366891  0.44348358  0.75547752    -0.34500
O371        O  0.31245994  0.58233982  0.79020863    -0.35900
O372        O  0.36988606  0.55298855  0.83074088    -0.40200
C373        C  0.29552393  0.48287992  0.29587483    -0.13900
C374        C  0.25289941  0.47523578  0.26004086     0.16500
C375        C  0.20826876  0.47890053  0.26939184     0.02800
C376        C  0.20714669  0.49248076  0.31241437    -0.12400
C377        C  0.24970953  0.50253629  0.34607410    -0.03400
C378        C  0.29431215  0.49650244  0.33835184     0.02100
C379        C  0.25639230  0.46684831  0.21201908     0.08900
N380        N  0.16360055  0.47118818  0.23442365     0.65300
H381        H  0.17278695  0.49691359  0.31806360     0.18200
N382        N  0.33882382  0.50473643  0.37314233     0.75700
H383        H  0.33002008  0.47936118  0.28996122     0.09700
C384        C  0.28015555  0.48580680  0.18808856     0.03400
C385        C  0.28440353  0.47726169  0.14365567    -0.05300
C386        C  0.26407831  0.45047463  0.12105255    -0.23700
C387        C  0.24163634  0.43110704  0.14576766     0.12600
C388        C  0.23890734  0.43917564  0.19110958    -0.12900
N389        N  0.29883853  0.51435603  0.20766487     0.64300
H390        H  0.30166515  0.49257876  0.12565084     0.12100
N391        N  0.21961550  0.40371486  0.12479532     0.60900
H392        H  0.22280726  0.42371709  0.20986877     0.08300
O393        O  0.35201863  0.49141439  0.41260543    -0.40500
O394        O  0.36790286  0.52196391  0.36200316    -0.39700
O395        O  0.15057372  0.44415923  0.22899533    -0.39700
O396        O  0.13242842  0.49124548  0.21898287    -0.37400
O397        O  0.24032243  0.37928798  0.13928691    -0.38300
O398        O  0.17600578  0.40361460  0.09932111    -0.34500
O399        O  0.34170759  0.52149231  0.21111312    -0.35900
O400        O  0.27133910  0.53348078  0.21740841    -0.40200
C401        C  0.25744205  0.78738293  0.45245227    -0.13900
C402        C  0.24720324  0.76820009  0.48568710     0.16500
C403        C  0.23225304  0.78102070  0.52296355     0.02800
C404        C  0.23014512  0.81231437  0.52743107    -0.12400
C405        C  0.24161875  0.83153243  0.49483311    -0.03400
C406        C  0.25395776  0.81852237  0.45608650     0.02100
C407        C  0.25543511  0.73521924  0.48236537     0.08900
N408        N  0.21933101  0.76263673  0.55679244     0.65300
H409        H  0.22054154  0.82157541  0.55730048     0.18200
N410        N  0.26492132  0.83654228  0.42085784     0.75700
H411        H  0.26953169  0.77822600  0.42403355     0.09700
C412        C  0.23864138  0.71940796  0.43848866     0.03400
C413        C  0.24991577  0.68901419  0.43612941    -0.05300
C414        C  0.27549001  0.67327332  0.47715598    -0.23700
C415        C  0.29237635  0.68890948  0.52085974     0.12600
C416        C  0.28310832  0.71966864  0.52300344    -0.12900
N417        N  0.20727617  0.73323857  0.39669379     0.64300
H418        H  0.23499428  0.67706784  0.40284390     0.12100
N419        N  0.31952090  0.67390583  0.56325198     0.60900
H420        H  0.29777071  0.73140402  0.55645987     0.08300
O421        O  0.23126447  0.84570745  0.38557597    -0.40500
O422        O  0.30816226  0.83996332  0.42165566    -0.39700
O423        O  0.23736727  0.76767648  0.60095831    -0.39700
O424        O  0.18738809  0.74267842  0.54258250    -0.37400
O425        O  0.36176061  0.66510349  0.56746656    -0.38300
O426        O  0.30331737  0.67214091  0.59829131    -0.34500
O427        O  0.21457098  0.72974828  0.35686543    -0.35900
O428        O  0.16922974  0.74601652  0.39848177    -0.40200
C429        C  0.27312868  0.03590686  0.70562983    -0.13900
C430        C  0.27168147  0.01922578  0.74553429     0.16500
C431        C  0.27305580  0.98764831  0.74275669     0.02800
C432        C  0.27227042  0.97383933  0.69991411    -0.12400
C433        C  0.27399794  0.99025768  0.66022382    -0.03400
C434        C  0.27471147  0.02177109  0.66319707     0.02100
C435        C  0.26503831  0.03410202  0.78873932     0.08900
N436        N  0.27613756  0.96937881  0.78344651     0.65300
H437        H  0.27137282  0.94925523  0.69788437     0.18200
N438        N  0.27306184  0.03948904  0.62247521     0.75700
H439        H  0.27072690  0.06036428  0.70658037     0.09700
C440        C  0.29537906  0.05738444  0.81345152     0.03400
C441        C  0.29298252  0.06687433  0.85822645    -0.05300
C442        C  0.26079354  0.05353889  0.87938868    -0.23700
C443        C  0.22723892  0.03234192  0.85235521     0.12600
C444        C  0.22937355  0.02317370  0.80746670    -0.12900
N445        N  0.33068292  0.07045511  0.79501782     0.64300
H446        H  0.31855751  0.08364653  0.87764073     0.12100
N447        N  0.19192435  0.01899776  0.87052283     0.60900
H448        H  0.20408228  0.00627254  0.78785740     0.08300
O449        O  0.30395285  0.05983073  0.62573803    -0.40500
O450        O  0.23788444  0.03700091  0.58481255    -0.39700
O451        O  0.25128248  0.94578156  0.77878374    -0.39700
O452        O  0.30694813  0.97523519  0.82314376    -0.37400
O453        O  0.15345292  0.03283051  0.86778289    -0.38300
O454        O  0.19641135  0.99211321  0.88375612    -0.34500
O455        O  0.32509689  0.09687204  0.77963807    -0.35900
O456        O  0.37038010  0.05741525  0.80052111    -0.40200
C457        C  0.30871270  0.95768477  0.31651166    -0.13900
C458        C  0.26677749  0.97196922  0.28899020     0.16500
C459        C  0.22760535  0.97546721  0.30744912     0.02800
C460        C  0.23257486  0.96655062  0.35425242    -0.12400
C461        C  0.27526762  0.95329710  0.38256115    -0.03400
C462        C  0.31329871  0.94833714  0.36295560     0.02100
C463        C  0.26736321  0.98714011  0.24458556     0.08900
N464        N  0.18304404  0.98847002  0.27932953     0.65300
H465        H  0.20285971  0.97001570  0.36865021     0.18200
N466        N  0.35840096  0.93636453  0.39115375     0.75700
H467        H  0.33918200  0.95535626  0.30288007     0.09700
C468        C  0.26334789  0.01851437  0.24102639     0.03400
C469        C  0.26061144  0.03215186  0.19775294    -0.05300
C470        C  0.26447020  0.01553580  0.15832719    -0.23700
C471        C  0.26999823  0.98427472  0.16238320     0.12600
C472        C  0.27149874  0.97031239  0.20546886    -0.12900
N473        N  0.26373837  0.03694751  0.28141049     0.64300
H474        H  0.25711459  0.05612634  0.19550543     0.12100
N475        N  0.27122932  0.96626765  0.12244652     0.60900
H476        H  0.27455264  0.94630559  0.20801052     0.08300
O477        O  0.39168575  0.95377493  0.41407646    -0.40500
O478        O  0.36710301  0.90892578  0.38814274    -0.39700
O479        O  0.16329396  0.97955290  0.23702317    -0.39700
O480        O  0.16106878  0.00679936  0.29803510    -0.37400
O481        O  0.30873613  0.95172968  0.12388226    -0.38300
O482        O  0.23314723  0.96212759  0.08820369    -0.34500
O483        O  0.29455038  0.03249226  0.32151815    -0.35900
O484        O  0.23766360  0.05999015  0.27576248    -0.40200
C485        C  0.97818751  0.02084319  0.51016172    -0.13900
C486        C  0.99163770  0.01527186  0.46914275     0.16500
C487        C  0.96333562  0.02764076  0.42540023     0.02800
C488        C  0.92194825  0.04462756  0.42376687    -0.12400
C489        C  0.90712221  0.04902420  0.46463849    -0.03400
C490        C  0.93684376  0.03758309  0.50865871     0.02100
C491        C  0.03720894  0.99814367  0.47428208     0.08900
N492        N  0.97431418  0.02165430  0.38189564     0.65300
H493        H  0.89917220  0.05235065  0.38956172     0.18200
N494        N  0.92578780  0.04261527  0.55236410     0.75700
H495        H  0.00063655  0.01235588  0.54398077     0.09700
C496        C  0.07747086  0.01167989  0.46575066     0.03400
C497        C  0.12087414  0.99577407  0.47469070    -0.05300
C498        C  0.12651910  0.96670264  0.49408898    -0.23700
C499        C  0.08557104  0.95278252  0.50075500     0.12600
C500        C  0.04162918  0.96852018  0.49101847    -0.12900
N501        N  0.07617435  0.04233897  0.45157516     0.64300
H502        H  0.15138709  0.00717329  0.46897096     0.12100
N503        N  0.08833699  0.92319482  0.51911571     0.60900
H504        H  0.01101229  0.95777762  0.49761340     0.08300
O505        O  0.91101020  0.06787117  0.56121322    -0.40500
O506        O  0.93746651  0.02336311  0.58498006    -0.39700
O507        O  0.98298260  0.99528071  0.37139319    -0.39700
O508        O  0.96998993  0.04201231  0.35145023    -0.37400
O509        O  0.09473114  0.91929431  0.56302168    -0.38300
O510        O  0.07829829  0.90116675  0.49071405    -0.34500
O511        O  0.06492789  0.06248347  0.47649709    -0.35900
O512        O  0.09271517  0.04971357  0.41832219    -0.40200
C513        C  0.50700730  0.95389819  0.52530676    -0.10700
C514        C  0.51165798  0.98259015  0.50863706     0.16500
C515        C  0.47463734  0.00371205  0.50527029     0.02800
C516        C  0.43321840  0.99530013  0.51681626    -0.12400
C517        C  0.42823811  0.96638907  0.53289707    -0.03400
C518        C  0.46662524  0.94586418  0.53847874     0.02100
C519        C  0.55430305  0.98954140  0.49292998     0.08900
N520        N  0.47824015  0.03365257  0.48970450     0.65300
H521        H  0.40435963  0.01133027  0.51211443     0.18200
N522        N  0.46490707  0.91642447  0.55637023     0.75700
H523        H  0.53466458  0.93734379  0.52752368     0.09700
C524        C  0.60177743  0.98343515  0.52207984     0.03400
C525        C  0.64100255  0.99184982  0.50693823    -0.05300
C526        C  0.63376791  0.00722744  0.46408355    -0.23700
C527        C  0.58665226  0.01186443  0.43388307     0.12600
C528        C  0.54735550  0.00236848  0.44790737    -0.12900
N529        N  0.61096116  0.97107160  0.56873433     0.64300
H530        H  0.67717395  0.98931314  0.53110028     0.12100
N531        N  0.57826131  0.02844931  0.39081916     0.60900
H532        H  0.51128806  0.00622823  0.42443776     0.08300
O533        O  0.47193457  0.91275194  0.60038606    -0.40500
O534        O  0.46174516  0.89397160  0.52933246    -0.39700
O535        O  0.44342056  0.04507297  0.45789426    -0.39700
O536        O  0.51502862  0.04934900  0.50962088    -0.37400
O537        O  0.58213973  0.01577315  0.35372483    -0.38300
O538        O  0.56178879  0.05466668  0.38839059    -0.34500
O539        O  0.63621108  0.94779402  0.57992198    -0.35900
O540        O  0.59652589  0.98441224  0.59977051    -0.40200
C541        C  0.07573297  0.60602389  0.25849868    -0.13900
C542        C  0.03913688  0.62235681  0.26939088     0.16500
C543        C  0.04946903  0.63576792  0.31492982     0.02800
C544        C  0.09505533  0.63200761  0.34882330    -0.12400
C545        C  0.13158069  0.61500309  0.33863552    -0.03400
C546        C  0.12136410  0.60213377  0.29246274     0.02100
C547        C  0.98944470  0.62299305  0.23423948     0.08900
N548        N  0.01405440  0.65348488  0.32721831     0.65300
H549        H  0.10151433  0.64223176  0.38362360     0.18200
N550        N  0.15572129  0.58358248  0.28013949     0.75700
H551        H  0.06820411  0.59518190  0.22406916     0.09700
C552        C  0.98101163  0.63432650  0.18789863     0.03400
C553        C  0.93522078  0.63139118  0.15386438    -0.05300
C554        C  0.89648233  0.61742033  0.16479461    -0.23700
C555        C  0.90478524  0.60688802  0.21193965     0.12600
C556        C  0.95072396  0.60986388  0.24594520    -0.12900
N557        N  0.01861887  0.64924183  0.17505647     0.64300
H558        H  0.93029163  0.63986455  0.11839292     0.12100
N559        N  0.86789913  0.59171216  0.22547424     0.60900
H560        H  0.95668104  0.60073320  0.28119588     0.08300
O561        O  0.17951421  0.59375849  0.25435629    -0.40500
O562        O  0.15672030  0.55596098  0.28859334    -0.39700
O563        O  0.00230774  0.64749657  0.36399916    -0.39700
O564        O  0.99810573  0.67687006  0.30409350    -0.37400
O565        O  0.84771289  0.60462728  0.25250467    -0.38300
O566        O  0.86216132  0.56395598  0.21804697    -0.34500
O567        O  0.03198676  0.63953376  0.14077152    -0.35900
O568        O  0.03547041  0.67362545  0.19518231    -0.40200
C569        C  0.72572364  0.48908870  0.21107745    -0.13900
C570        C  0.76838756  0.48070544  0.24577918     0.16500
C571        C  0.81304902  0.48527182  0.23731216     0.02800
C572        C  0.81423156  0.49973191  0.19544415    -0.12400
C573        C  0.77156223  0.50971041  0.16221325    -0.03400
C574        C  0.72686355  0.50327898  0.16936973     0.02100
C575        C  0.76507811  0.47111327  0.29268456     0.08900
N576        N  0.85746566  0.47732383  0.27220789     0.65300
H577        H  0.84860155  0.50446394  0.19001992     0.18200
N578        N  0.68231443  0.51069820  0.13418039     0.75700
H579        H  0.69135492  0.48518913  0.21706679     0.09700
C580        C  0.74890615  0.49134802  0.32130389     0.03400
C581        C  0.74281087  0.48184330  0.36415735    -0.05300
C582        C  0.75378039  0.45240243  0.38026894    -0.23700
C583        C  0.76842123  0.43181922  0.35056900     0.12600
C584        C  0.77374301  0.44133123  0.30708781    -0.12900
N585        N  0.74004604  0.52199892  0.30795196     0.64300
H586        H  0.73187048  0.49819061  0.38604669     0.12100
N587        N  0.77851098  0.40132507  0.36405303     0.60900
H588        H  0.78425101  0.42537077  0.28435270     0.08300
O589        O  0.64942525  0.52366829  0.14642762    -0.40500
O590        O  0.67280004  0.49966255  0.09274147    -0.39700
O591        O  0.86700844  0.45019316  0.28205066    -0.39700
O592        O  0.89017626  0.49672429  0.28726680    -0.37400
O593        O  0.74428848  0.38350004  0.36179191    -0.38300
O594        O  0.82086994  0.39142972  0.37287532    -0.34500
O595        O  0.69851353  0.53288087  0.30088153    -0.35900
O596        O  0.77458580  0.53883982  0.30726490    -0.40200
C597        C  0.78186503  0.55790955  0.81303486    -0.13900
C598        C  0.75607367  0.53156155  0.79574874     0.16500
C599        C  0.73210386  0.51689126  0.82394949     0.02800
C600        C  0.73591178  0.52774860  0.86961298    -0.12400
C601        C  0.76381650  0.55325860  0.88852758    -0.03400
C602        C  0.78569533  0.56898262  0.85895289     0.02100
C603        C  0.75900882  0.51736176  0.75105687     0.08900
N604        N  0.70540480  0.49006692  0.80730426     0.65300
H605        H  0.71839418  0.51526093  0.89100173     0.18200
N606        N  0.81315535  0.59558322  0.87538375     0.75700
H607        H  0.80039842  0.56933562  0.79145258     0.09700
C608        C  0.73180351  0.52753324  0.70573571     0.03400
C609        C  0.73432407  0.51233874  0.66459898    -0.05300
C610        C  0.76351127  0.48683641  0.66791356    -0.23700
C611        C  0.79263691  0.47762808  0.71359181     0.12600
C612        C  0.78949006  0.49272106  0.75449490    -0.12900
N613        N  0.69986949  0.55237197  0.70105520     0.64300
H614        H  0.71173690  0.51973660  0.63013530     0.12100
N615        N  0.82646572  0.45358694  0.71918675     0.60900
H616        H  0.81134199  0.48538558  0.78930586     0.08300
O617        O  0.79184785  0.62006507  0.87599621    -0.40500
O618        O  0.85840355  0.59522404  0.88464248    -0.39700
O619        O  0.72329771  0.46507830  0.82271565    -0.39700
O620        O  0.66232123  0.49151739  0.78071033    -0.37400
O621        O  0.85701754  0.45386182  0.69664439    -0.38300
O622        O  0.83057846  0.43458332  0.75163300    -0.34500
O623        O  0.70681867  0.57576520  0.68040711    -0.35900
O624        O  0.66189889  0.54975365  0.71282651    -0.40200
C625        C  0.46654629  0.48133528  0.94919503    -0.13900
C626        C  0.49512770  0.49084357  0.99487456     0.16500
C627        C  0.47976961  0.48319049  0.03447574     0.02800
C628        C  0.43589276  0.46773272  0.02745202    -0.12400
C629        C  0.40721713  0.45829701  0.98174918    -0.03400
C630        C  0.42380162  0.46470110  0.94241046     0.02100
C631        C  0.54022510  0.50899776  0.00018628     0.08900
N632        N  0.50853386  0.49061619  0.08215097     0.65300
H633        H  0.42388745  0.46324491  0.05805951     0.18200
N634        N  0.39642920  0.45601499  0.89490438     0.75700
H635        H  0.47723611  0.48711909  0.91829022     0.09700
C636        C  0.57484135  0.49977812  0.97830753     0.03400
C637        C  0.61619279  0.51723023  0.98325906    -0.05300
C638        C  0.62603694  0.54346939  0.01157465    -0.23700
C639        C  0.59044408  0.55357037  0.03166996     0.12600
C640        C  0.54820026  0.53632233  0.02588901    -0.12900
N641        N  0.57050185  0.47158763  0.95381049     0.64300
H642        H  0.64274669  0.50885268  0.96748159     0.12100
N643        N  0.59703099  0.58072007  0.05900324     0.60900
H644        H  0.52142511  0.54434596  0.04160251     0.08300
O645        O  0.39285231  0.42869807  0.88328590    -0.40500
O646        O  0.38365619  0.47548579  0.86273772    -0.39700
O647        O  0.48950482  0.50308788  0.11054598    -0.39700
O648        O  0.55183956  0.48213217  0.09735271    -0.37400
O649        O  0.60016057  0.60526011  0.03931086    -0.38300
O650        O  0.59234149  0.58079507  0.10023184    -0.34500
O651        O  0.57664691  0.47003443  0.91322789    -0.35900
O652        O  0.56604575  0.44781821  0.97490072    -0.40200
C653        C  0.06218223  0.52428472  0.96921113    -0.13900
C654        C  0.06178923  0.52263428  0.01685173     0.16500
C655        C  0.10410225  0.51422399  0.05290854     0.02800
C656        C  0.14448608  0.50573728  0.04008082    -0.12400
C657        C  0.14258184  0.50377374  0.99203471    -0.03400
C658        C  0.10214419  0.51439898  0.95639973     0.02100
C659        C  0.01580625  0.52731791  0.02718126     0.08900
N660        N  0.10551378  0.51138221  0.10183428     0.65300
H661        H  0.17568853  0.49719813  0.06736547     0.18200
N662        N  0.09933101  0.51256547  0.90707197     0.75700
H663        H  0.03004792  0.53115746  0.94150442     0.09700
C664        C  0.01094217  0.54857453  0.06111246     0.03400
C665        C  0.96615871  0.55195909  0.06872183    -0.05300
C666        C  0.92561302  0.53563433  0.04160906    -0.23700
C667        C  0.93118710  0.51343224  0.00958088     0.12600
C668        C  0.97623463  0.50928664  0.00298446    -0.12900
N669        N  0.05005512  0.56787754  0.08623634     0.64300
H670        H  0.96213139  0.56913677  0.09336803     0.12100
N671        N  0.89078176  0.49688184  0.98033859     0.60900
H672        H  0.97999246  0.49255472  0.97757122     0.08300
O673        O  0.09399956  0.53604684  0.88258160    -0.40500
O674        O  0.09650228  0.48740000  0.88668738    -0.39700
O675        O  0.07373906  0.49624389  0.11244972    -0.39700
O676        O  0.14215067  0.52028965  0.13468034    -0.37400
O677        O  0.86493429  0.50771202  0.94147077    -0.38300
O678        O  0.88468154  0.47008383  0.99022906    -0.34500
O679        O  0.07534925  0.58075764  0.06421864    -0.35900
O680        O  0.05675462  0.57413560  0.12969803    -0.40200
C681        C  0.53396558  0.86823412  0.80297234    -0.13900
C682        C  0.52908138  0.87938337  0.75734388     0.16500
C683        C  0.57015921  0.89135872  0.74795285     0.02800
C684        C  0.61445383  0.89295960  0.78465296    -0.12400
C685        C  0.61851126  0.88353749  0.83114302    -0.03400
C686        C  0.57819965  0.86977450  0.83978892     0.02100
C687        C  0.48011879  0.87978805  0.72128176     0.08900
N688        N  0.56654905  0.90451883  0.70283310     0.65300
H689        H  0.64477417  0.90389006  0.77772595     0.18200
N690        N  0.58158033  0.85724656  0.88555562     0.75700
H691        H  0.50287786  0.85839792  0.80995282     0.09700
C692        C  0.46865431  0.86329699  0.67813749     0.03400
C693        C  0.42258345  0.86604813  0.64440251    -0.05300
C694        C  0.38708352  0.88496643  0.65256511    -0.23700
C695        C  0.39873219  0.90078298  0.69646887     0.12600
C696        C  0.44450815  0.89789563  0.73017617    -0.12900
N697        N  0.50322663  0.84363882  0.66811067     0.64300
H698        H  0.41490616  0.85365325  0.61118083     0.12100
N699        N  0.36596837  0.92161541  0.70633932     0.60900
H700        H  0.45291804  0.91082401  0.76297415     0.08300
O701        O  0.61947666  0.84396204  0.90923851    -0.40500
O702        O  0.54491456  0.85625970  0.89982284    -0.39700
O703        O  0.54013029  0.92711900  0.68941096    -0.39700
O704        O  0.59622194  0.89735291  0.68112309    -0.37400
O705        O  0.36930022  0.94881731  0.69682200    -0.38300
O706        O  0.34317971  0.91440640  0.73479882    -0.34500
O707        O  0.52302044  0.82358818  0.69748095    -0.35900
O708        O  0.51036121  0.84426558  0.62793235    -0.40200
C709        C  0.78331048  0.72553207  0.04530970    -0.13900
C710        C  0.76468175  0.73688607  0.99888428     0.16500
C711        C  0.74125165  0.71688676  0.96146092     0.02800
C712        C  0.73712123  0.68639829  0.97118272    -0.12400
C713        C  0.75406215  0.67542268  0.01798299    -0.03400
C714        C  0.77743494  0.69543219  0.05528305     0.02100
C715        C  0.76977543  0.76965280  0.99099227     0.08900
N716        N  0.72080939  0.72717210  0.91358648     0.65300
H717        H  0.72036270  0.67120266  0.94204170     0.18200
N718        N  0.79865797  0.68517837  0.10302878     0.75700
H719        H  0.80266134  0.74019059  0.07422615     0.09700
C720        C  0.75698262  0.79112925  0.02042836     0.03400
C721        C  0.76277411  0.82159192  0.01323024    -0.05300
C722        C  0.77814532  0.83182847  0.97516318    -0.23700
C723        C  0.79273637  0.81055411  0.94679952     0.12600
C724        C  0.78887428  0.77974282  0.95511986    -0.12900
N725        N  0.73436276  0.78260175  0.05538600     0.64300
H726        H  0.75103893  0.83748083  0.03515554     0.12100
N727        N  0.80875282  0.81974171  0.90778586     0.60900
H728        H  0.80006009  0.76373517  0.93306648     0.08300
O729        O  0.77222451  0.68035365  0.12908625    -0.40500
O730        O  0.84381952  0.68638954  0.12171275    -0.39700
O731        O  0.73212311  0.71475476  0.87987144    -0.39700
O732        O  0.68807881  0.74670676  0.90433232    -0.37400
O733        O  0.85099029  0.82974175  0.91555337    -0.38300
O734        O  0.78226111  0.81551828  0.86543465    -0.34500
O735        O  0.74735917  0.79462572  0.09631156    -0.35900
O736        O  0.69752802  0.76594905  0.04358742    -0.40200
C737        C  0.95192424  0.98838795  0.92595323    -0.13900
C738        C  0.98125584  0.99671152  0.97193703     0.16500
C739        C  0.96677839  0.98793740  0.01161014     0.02800
C740        C  0.92327944  0.97213505  0.00450897    -0.12400
C741        C  0.89441687  0.96349409  0.95860701    -0.03400
C742        C  0.90949621  0.97155311  0.91907918     0.02100
C743        C  0.02628938  0.01480193  0.97776464     0.08900
N744        N  0.99604602  0.99457101  0.05941968     0.65300
H745        H  0.91193956  0.96654050  0.03508090     0.18200
N746        N  0.88020039  0.96492937  0.87139278     0.75700
H747        H  0.96157166  0.99537082  0.89504345     0.09700
C748        C  0.06069469  0.00612191  0.95525496     0.03400
C749        C  0.10361351  0.02246805  0.96361812    -0.05300
C750        C  0.11456733  0.04707688  0.99535607    -0.23700
C751        C  0.07899611  0.05704980  0.01526044     0.12600
C752        C  0.03525419  0.04106504  0.00618542    -0.12900
N753        N  0.05456915  0.97946250  0.92663965     0.64300
H754        H  0.13024780  0.01438525  0.94789290     0.12100
N755        N  0.08789366  0.08208641  0.04718500     0.60900
H756        H  0.00882156  0.04872568  0.02246708     0.08300
O757        O  0.88149259  0.93918432  0.85400087    -0.40500
O758        O  0.85945234  0.98585596  0.84440676    -0.39700
O759        O  0.97748327  0.00644424  0.08866544    -0.39700
O760        O  0.03953841  0.98636495  0.07361856    -0.37400
O761        O  0.07780974  0.10809372  0.03098635    -0.38300
O762        O  0.10185563  0.07803534  0.09168590    -0.34500
O763        O  0.06020852  0.98028525  0.88581965    -0.35900
O764        O  0.04957785  0.95453371  0.94435493    -0.40200
C765        C  0.49387857  0.03074766  0.02931755    -0.13900
C766        C  0.48612268  0.01855406  0.98337013     0.16500
C767        C  0.43859840  0.01193739  0.95475565     0.02800
C768        C  0.40021248  0.01674866  0.97293291    -0.12400
C769        C  0.40785140  0.02958622  0.01825951    -0.03400
C770        C  0.45504322  0.03660716  0.04670484     0.02100
C771        C  0.52798535  0.00837874  0.96883194     0.08900
N772        N  0.42862232  0.00113252  0.90666436     0.65300
H773        H  0.36393002  0.01262285  0.95003149     0.18200
N774        N  0.46400954  0.04902443  0.09360834     0.75700
H775        H  0.53008544  0.03485845  0.05221882     0.09700
C776        C  0.56867529  0.02666232  0.97282979     0.03400
C777        C  0.60983024  0.01419119  0.96477002    -0.05300
C778        C  0.61033237  0.98396109  0.95196483    -0.23700
C779        C  0.56855757  0.96641957  0.94525121     0.12600
C780        C  0.52850481  0.97845666  0.95470613    -0.12900
N781        N  0.56901198  0.05759767  0.98581685     0.64300
H782        H  0.64179187  0.02771150  0.97024040     0.12100
N783        N  0.56659597  0.93596371  0.92970771     0.60900
H784        H  0.49813525  0.96401695  0.95220094     0.08300
O785        O  0.48629307  0.07352355  0.10453306    -0.40500
O786        O  0.45292506  0.03439442  0.12522611    -0.39700
O787        O  0.40044503  0.97925577  0.89216242    -0.39700
O788        O  0.44639134  0.01415400  0.87801886    -0.37400
O789        O  0.55834066  0.93017411  0.88591241    -0.38300
O790        O  0.56457074  0.91527421  0.95791296    -0.34500
O791        O  0.60356032  0.06819568  0.01929067    -0.35900
O792        O  0.53624119  0.07477414  0.96201432    -0.40200
C793        C  0.75497460  0.94415116  0.17732472    -0.13900
C794        C  0.78204790  0.97002686  0.19483966     0.16500
C795        C  0.80797970  0.98376342  0.16714036     0.02800
C796        C  0.80136525  0.97354041  0.12039272    -0.12400
C797        C  0.77062915  0.94933915  0.10109010    -0.03400
C798        C  0.74906871  0.93368219  0.13078173     0.02100
C799        C  0.77604028  0.98525169  0.23772198     0.08900
N800        N  0.83949620  0.00874611  0.18537210     0.65300
H801        H  0.81941690  0.98508356  0.09844673     0.18200
N802        N  0.71726618  0.90903299  0.11286749     0.75700
H803        H  0.73514243  0.93344112  0.19844455     0.09700
C804        C  0.75533685  0.01400142  0.23422346     0.03400
C805        C  0.75176134  0.02845691  0.27533784    -0.05300
C806        C  0.76703073  0.01469639  0.32028132    -0.23700
C807        C  0.78743892  0.98579444  0.32357541     0.12600
C808        C  0.79136247  0.97125139  0.28235148    -0.12900
N809        N  0.73683641  0.02871265  0.18908393     0.64300
H810        H  0.73657918  0.05043369  0.27179638     0.12100
N811        N  0.80601970  0.97126693  0.36851931     0.60900
H812        H  0.80742978  0.94940459  0.28534267     0.08300
O813        O  0.72885732  0.88324066  0.12940054    -0.40500
O814        O  0.67498795  0.91371457  0.08600195    -0.39700
O815        O  0.86631748  0.00906297  0.22816204    -0.39700
O816        O  0.84355041  0.02938810  0.15784937    -0.37400
O817        O  0.78350334  0.94944870  0.37848179    -0.38300
O818        O  0.84788963  0.97752160  0.39523389    -0.34500
O819        O  0.70891539  0.01495972  0.15372235    -0.35900
O820        O  0.74375377  0.05637080  0.18593856    -0.40200
C821        C  0.79755957  0.02826223  0.67663985    -0.13900
C822        C  0.75730838  0.03574669  0.69093860     0.16500
C823        C  0.72421874  0.05688900  0.66434261     0.02800
C824        C  0.72938328  0.06772930  0.62150033    -0.12400
C825        C  0.76658763  0.05727124  0.60434125    -0.03400
C826        C  0.80201409  0.03845011  0.63345722     0.02100
C827        C  0.74933404  0.01949188  0.73163435     0.08900
N828        N  0.68328367  0.06576004  0.67829362     0.65300
H829        H  0.70186797  0.08222810  0.59966051     0.18200
N830        N  0.84305282  0.02959436  0.61999607     0.75700
H831        H  0.82444130  0.01318698  0.69795725     0.09700
C832        C  0.74767976  0.98798281  0.73116064     0.03400
C833        C  0.74410530  0.97266528  0.77101524    -0.05300
C834        C  0.74223496  0.98800944  0.81220016    -0.23700
C835        C  0.74285270  0.01967867  0.81236280     0.12600
C836        C  0.74641614  0.03509415  0.77220136    -0.12900
N837        N  0.75033615  0.97111942  0.69052373     0.64300
H838        H  0.74395331  0.94850023  0.76990024     0.12100
N839        N  0.74094306  0.03654693  0.85319749     0.60900
H840        H  0.74811281  0.05923987  0.77314627     0.08300
O841        O  0.84133308  0.00568788  0.59646580    -0.40500
O842        O  0.88352032  0.04073959  0.64237007    -0.39700
O843        O  0.67788354  0.09283678  0.68781010    -0.39700
O844        O  0.65040386  0.04710077  0.67700707    -0.37400
O845        O  0.77878037  0.04848529  0.88036550    -0.38300
O846        O  0.70077695  0.04208699  0.85933379    -0.34500
O847        O  0.78393623  0.95254638  0.69465700    -0.35900
O848        O  0.71769384  0.97358233  0.65107978    -0.40200
loop_ 
_geom_bond_atom_site_label_1 
_geom_bond_atom_site_label_2 
_geom_bond_distance 
_geom_bond_site_symmetry_2 
_ccdc_geom_bond_type 
O1           C16   1.261       .  A
O1           Al9   1.888       .  S
C2           O12   1.262       .  A
C2            O3   1.269       .  A
C2          C685   1.489       .  S
O3           Al5   1.942       .  S
O4            C6   1.258       .  A
O4           Al5   1.889       .  S
Al5          O13   1.943       .  S
Al5          O15   1.950       .  S
Al5          O14   1.794       .  S
C6           O19   1.257       .  A
C6          C834   1.485       .  S
O7           C17   1.260       .  A
O7           Al9   1.912       .  S
O8           C21   1.264       .  A
O8          Al18   1.909   1_554  S
Al9          O22   1.909   1_556  S
Al9          O19   1.902       .  S
Al9          O14   1.793       .  S
O10          C17   1.255       .  A
O10         Al18   1.877       .  S
O11          C20   1.253       .  A
O11         Al18   1.863       .  S
O12         Al18   1.891       .  S
O13          C20   1.266       .  A
O14         Al18   1.785       .  S
O15          C16   1.272       .  A
C16         C741   1.491       .  S
C17         C778   1.468       .  S
C20         C722   1.491       .  S
C21          O22   1.264       .  A
C21         C797   1.483       .  S
O23          C38   1.259       .  A
O23         Al31   1.883   1_556  S
C24          O34   1.269       .  A
C24          O25   1.271       .  A
C24         C554   1.506       .  S
O25         Al27   1.936       .  S
O26          C28   1.251       .  A
O26         Al27   1.851       .  S
Al27         O35   1.886   1_554  S
Al27         O37   1.930   1_554  S
Al27         O36   1.778       .  S
C28          O41   1.263       .  A
C28         C666   1.470       .  S
O29          C39   1.260       .  A
O29         Al31   1.913       .  S
O30          C43   1.280       .  A
O30         Al40   1.953       .  S
Al31         O44   1.910       .  S
Al31         O41   1.926       .  S
Al31         O36   1.774       .  S
O32          C39   1.260       .  A
O32         Al40   1.912       .  S
O33          C42   1.267       .  A
O33         Al40   1.956       .  S
O34         Al40   1.927       .  S
O35          C42   1.254   1_556  A
O36         Al40   1.785       .  S
O37          C38   1.265       .  A
C38         C601   1.493       .  S
C39         C573   1.474       .  S
C42         C713   1.487       .  S
C43          O44   1.270       .  A
C43         C638   1.505       .  S
O45          C60   1.268       .  A
O45         Al53   1.907       .  S
C46          O56   1.265       .  A
C46          O47   1.269       .  A
C46         C694   1.502       .  S
O47         Al49   1.932       .  S
O48          C50   1.259       .  A
O48         Al49   1.896       .  S
Al49         O57   1.950       .  S
Al49         O59   1.955       .  S
Al49         O58   1.781       .  S
C50          O63   1.265       .  A
C50         C433   1.481       .  S
O51          C61   1.266       .  A
O51         Al53   1.932       .  S
O52          C65   1.261       .  A
O52         Al62   1.910       .  S
Al53         O66   1.894       .  S
Al53         O63   1.922       .  S
Al53         O58   1.778       .  S
O54          C61   1.252       .  A
O54         Al62   1.862       .  S
O55          C64   1.256       .  A
O55         Al62   1.886       .  S
O56         Al62   1.923       .  S
O57          C64   1.267       .  A
O58         Al62   1.779       .  S
O59          C60   1.280       .  A
C60         C498   1.506       .  S
C61         C517   1.485       .  S
C64         C405   1.497       .  S
C65          O66   1.261       .  A
C65         C461   1.479       .  S
O67          C82   1.261       .  A
O67         Al75   1.901       .  S
C68          O78   1.271       .  A
C68          O69   1.269       .  A
C68         C545   1.503       .  S
O69         Al71   1.930       .  S
O70          C72   1.254       .  A
O70         Al71   1.863       .  S
Al71         O79   1.898       .  S
Al71         O81   1.912       .  S
Al71         O80   1.781       .  S
C72          O85   1.263       .  A
C72         C330   1.480       .  S
O73          C83   1.263       .  A
O73         Al75   1.930       .  S
O74          C87   1.281       .  A
O74         Al84   1.948       .  S
Al75         O88   1.911       .  S
Al75         O85   1.922       .  S
Al75         O80   1.778       .  S
O76          C83   1.256       .  A
O76         Al84   1.896       .  S
O77          C86   1.264       .  A
O77         Al84   1.943       .  S
O78         Al84   1.928       .  S
O79          C86   1.255       .  A
O80         Al84   1.786       .  S
O81          C82   1.261       .  A
C82         C349   1.485       .  S
C83         C377   1.479       .  S
C86         C414   1.485       .  S
C87          O88   1.269       .  A
C87         C293   1.501       .  S
O89         C104   1.259       .  A
O89         Al97   1.883       .  S
C90         O100   1.261       .  A
C90          O91   1.271       .  A
C90         C246   1.496       .  S
O91         Al93   1.949       .  S
O92          C94   1.259       .  A
O92         Al93   1.892       .  S
Al93        O101   1.939       .  S
Al93        O103   1.962       .  S
Al93        O102   1.787       .  S
C94         O107   1.262       .  A
C94         C610   1.488       .  S
O95         C105   1.259       .  A
O95         Al97   1.910       .  S
O96         C109   1.263       .  A
O96        Al106   1.898       .  S
Al97        O110   1.922       .  S
Al97        O107   1.922       .  S
Al97        O102   1.784       .  S
O98         C105   1.257       .  A
O98        Al106   1.888       .  S
O99         C108   1.257       .  A
O99        Al106   1.880       .  S
O100       Al106   1.875       .  S
O101        C108   1.268       .  A
O102       Al106   1.779       .  S
O103        C104   1.273       .  A
C104        C302   1.492       .  S
C105        C321   1.458       .  S
C108        C265   1.499       .  S
C109        O110   1.267       .  A
C109        C582   1.489       .  S
O111        C126   1.265       .  A
O111       Al119   1.926       .  S
C112        O122   1.270       .  A
C112        O113   1.258       .  A
C112        C209   1.488       .  S
O113       Al115   1.879       .  S
O114        C116   1.258       .  A
O114       Al115   1.889       .  S
Al115       O123   1.889       .  S
Al115       O125   1.897       .  S
Al115       O124   1.790       .  S
C116        O129   1.262       .  A
C116        C526   1.460       .  S
O117        C127   1.262       .  A
O117       Al119   1.932       .  S
O118        C131   1.275       .  A
O118       Al128   1.968       .  S
Al119       O132   1.888       .  S
Al119       O129   1.909       .  S
Al119       O124   1.792       .  S
O120        C127   1.256       .  A
O120       Al128   1.877       .  S
O121        C130   1.264       .  A
O121       Al128   1.918       .  S
O122       Al128   1.950       .  S
O123        C130   1.256       .  A
O124       Al128   1.788       .  S
O125        C126   1.261       .  A
C126        C825   1.479       .  S
C127        C806   1.492       .  S
C130        C274   1.478       .  S
C131        O132   1.261       .  A
C131        C489   1.501       .  S
O133        C148   1.264       .  A
O133       Al141   1.902   1_556  S
C134        O144   1.267       .  A
C134        O135   1.264       .  A
C134        C218   1.502       .  S
O135       Al137   1.918       .  S
O136        C138   1.254       .  A
O136       Al137   1.883       .  S
Al137       O145   1.890   1_554  S
Al137       O147   1.918   1_554  S
Al137       O146   1.780       .  S
C138        O151   1.260       .  A
C138        C769   1.465       .  S
O139        C149   1.267       .  A
O139       Al141   1.924       .  S
O140        C153   1.276       .  A
O140       Al150   1.951       .  S
Al141       O154   1.893       .  S
Al141       O151   1.910       .  S
Al141       O146   1.779       .  S
O142        C149   1.260       .  A
O142       Al150   1.896       .  S
O143        C152   1.266       .  A
O143       Al150   1.934       .  S
O144       Al150   1.930       .  S
O145        C152   1.257   1_556  A
O146       Al150   1.780       .  S
O147        C148   1.265       .  A
C148        C442   1.491       .  S
C149        C470   1.483       .  S
C152        C181   1.490       .  S
C153        O154   1.263       .  A
C153        C750   1.495   1_554  S
O155        C170   1.259   1_554  A
O155       Al163   1.886   1_554  S
C156        O166   1.261       .  A
C156        O157   1.271       .  A
C156        C237   1.494       .  S
O157       Al159   1.953       .  S
O158        C160   1.258       .  A
O158       Al159   1.882       .  S
Al159       O167   1.939       .  S
Al159       O169   1.966       .  S
Al159       O168   1.786       .  S
C160        O173   1.265       .  A
C160        C358   1.483       .  S
O161        C171   1.258       .  A
O161       Al163   1.908       .  S
O162        C175   1.264       .  A
O162       Al172   1.901   1_554  S
Al163       O176   1.934   1_556  S
Al163       O173   1.931       .  S
Al163       O168   1.785       .  S
O164        C171   1.255       .  A
O164       Al172   1.878       .  S
O165        C174   1.255       .  A
O165       Al172   1.880       .  S
O166       Al172   1.880       .  S
O167        C174   1.269       .  A
O168       Al172   1.776       .  S
O169        C170   1.273       .  A
C170        C629   1.501       .  S
C171        C657   1.454       .  S
C174        C190   1.498       .  S
C175        O176   1.270       .  A
C175        C386   1.493       .  S
C177        C178   1.406       .  A
C177        C182   1.406       .  A
C177        H187   1.081       .  S
C178        C183   1.497       .  S
C178        C179   1.416   1_556  A
C179        C180   1.402       .  A
C179        N184   1.435       .  S
C180        C181   1.404       .  A
C180        H185   1.082       .  S
C181        C182   1.415   1_554  A
C182        N186   1.430       .  S
C183        C188   1.416       .  A
C183        C192   1.398   1_556  A
N184        O199   1.262       .  A
N184        O200   1.262       .  A
N186        O197   1.262       .  A
N186        O198   1.262       .  A
C188        C189   1.412       .  A
C188        N193   1.431       .  S
C189        C190   1.407       .  A
C189        H194   1.082       .  S
C190        C191   1.423       .  A
C191        C192   1.394   1_556  A
C191        N195   1.430   1_556  S
C192        H196   1.083       .  S
N193        O203   1.262       .  A
N193        O204   1.262       .  A
N195        O201   1.262   1_554  A
N195        O202   1.261       .  A
C205        C206   1.408       .  A
C205        C210   1.407       .  A
C205        H215   1.081       .  S
C206        C211   1.499       .  S
C206        C207   1.413       .  A
C207        C208   1.406       .  A
C207        N212   1.433       .  S
C208        C209   1.406       .  A
C208        H213   1.081       .  S
C209        C210   1.409       .  A
C210        N214   1.428       .  S
C211        C216   1.410       .  A
C211        C220   1.406       .  A
N212        O227   1.262       .  A
N212        O228   1.262       .  A
N214        O225   1.262       .  A
N214        O226   1.262       .  A
C216        C217   1.405       .  A
C216        N221   1.431       .  S
C217        C218   1.411       .  A
C217        H222   1.083       .  S
C218        C219   1.416       .  A
C219        C220   1.408       .  A
C219        N223   1.428       .  S
C220        H224   1.083       .  S
N221        O231   1.262       .  A
N221        O232   1.262       .  A
N223        O229   1.262       .  A
N223        O230   1.262       .  A
C233        C234   1.406       .  A
C233        C238   1.407       .  A
C233        H243   1.081       .  S
C234        C239   1.490   1_455  S
C234        C235   1.408       .  A
C235        C236   1.401       .  A
C235        N240   1.433   1_455  S
C236        C237   1.410       .  A
C236        H241   1.081       .  S
C237        C238   1.415       .  A
C238        N242   1.432       .  S
C239        C244   1.406       .  A
C239        C248   1.407       .  A
N240        O255   1.262       .  A
N240        O256   1.262       .  A
N242        O253   1.263       .  A
N242        O254   1.262       .  A
C244        C245   1.398       .  A
C244        N249   1.431   1_655  S
C245        C246   1.410       .  A
C245        H250   1.081       .  S
C246        C247   1.418       .  A
C247        C248   1.410       .  A
C247        N251   1.435       .  S
C248        H252   1.081       .  S
N249        O259   1.262       .  A
N249        O260   1.262       .  A
N251        O257   1.262       .  A
N251        O258   1.263       .  A
C261        C262   1.411       .  A
C261        C266   1.411       .  A
C261        H271   1.080       .  S
C262        C267   1.499       .  S
C262        C263   1.410       .  A
C263        C264   1.400       .  A
C263        N268   1.435       .  S
C264        C265   1.412       .  A
C264        H269   1.080       .  S
C265        C266   1.412       .  A
C266        N270   1.429       .  S
C267        C272   1.414       .  A
C267        C276   1.409       .  A
N268        O283   1.262       .  A
N268        O284   1.263       .  A
N270        O281   1.262       .  A
N270        O282   1.262       .  A
C272        C273   1.406       .  A
C272        N277   1.432       .  S
C273        C274   1.404       .  A
C273        H278   1.080       .  S
C274        C275   1.407       .  A
C275        C276   1.404       .  A
C275        N279   1.430       .  S
C276        H280   1.080       .  S
N277        O287   1.262       .  A
N277        O288   1.262       .  A
N279        O285   1.262       .  A
N279        O286   1.262       .  A
C289        C290   1.402       .  A
C289        C294   1.402       .  A
C289        H299   1.081       .  S
C290        C295   1.507       .  S
C290        C291   1.419       .  A
C291        C292   1.414       .  A
C291        N296   1.432       .  S
C292        C293   1.406       .  A
C292        H297   1.081       .  S
C293        C294   1.421       .  A
C294        N298   1.430       .  S
C295        C300   1.419       .  A
C295        C304   1.407       .  A
N296        O311   1.262       .  A
N296        O312   1.262       .  A
N298        O309   1.261       .  A
N298        O310   1.262       .  A
C300        C301   1.410       .  A
C300        N305   1.434       .  S
C301        C302   1.405       .  A
C301        H306   1.081       .  S
C302        C303   1.414       .  A
C303        C304   1.408       .  A
C303        N307   1.433       .  S
C304        H308   1.080       .  S
N305        O315   1.262       .  A
N305        O316   1.262       .  A
N307        O313   1.262       .  A
N307        O314   1.262       .  A
C317        C318   1.407       .  A
C317        C322   1.401       .  A
C317        H327   1.082       .  S
C318        C323   1.476   1_655  S
C318        C319   1.412       .  A
C319        C320   1.395       .  A
C319        N324   1.435       .  S
C320        C321   1.401       .  A
C320        H325   1.083       .  S
C321        C322   1.403       .  A
C322        N326   1.430       .  S
C323        C328   1.410       .  A
C323        C332   1.403       .  A
N324        O339   1.262       .  A
N324        O340   1.262       .  A
N326        O337   1.262       .  A
N326        O338   1.262       .  A
C328        C329   1.400       .  A
C328        N333   1.437   1_455  S
C329        C330   1.409       .  A
C329        H334   1.083       .  S
C330        C331   1.411       .  A
C331        C332   1.397       .  A
C331        N335   1.429       .  S
C332        H336   1.083       .  S
N333        O343   1.262       .  A
N333        O344   1.263       .  A
N335        O341   1.262       .  A
N335        O342   1.262       .  A
C345        C346   1.402       .  A
C345        C350   1.401       .  A
C345        H355   1.081       .  S
C346        C351   1.484       .  S
C346        C347   1.412       .  A
C347        C348   1.405       .  A
C347        N352   1.434       .  S
C348        C349   1.406       .  A
C348        H353   1.076       .  S
C349        C350   1.414       .  A
C350        N354   1.429       .  S
C351        C356   1.411       .  A
C351        C360   1.401       .  A
N352        O367   1.262       .  A
N352        O368   1.262       .  A
N354        O365   1.262       .  A
N354        O366   1.262       .  A
C356        C357   1.406       .  A
C356        N361   1.433       .  S
C357        C358   1.406       .  A
C357        H362   1.083       .  S
C358        C359   1.415       .  A
C359        C360   1.399       .  A
C359        N363   1.433       .  S
C360        H364   1.084       .  S
N361        O371   1.262       .  A
N361        O372   1.262       .  A
N363        O369   1.262       .  A
N363        O370   1.262       .  A
C373        C374   1.401       .  A
C373        C378   1.396       .  A
C373        H383   1.082       .  S
C374        C379   1.493       .  S
C374        C375   1.418       .  A
C375        C376   1.409       .  A
C375        N380   1.430       .  S
C376        C377   1.400       .  A
C376        H381   1.082       .  S
C377        C378   1.412       .  A
C378        N382   1.430       .  S
C379        C384   1.415       .  A
C379        C388   1.402       .  A
N380        O395   1.262       .  A
N380        O396   1.262       .  A
N382        O393   1.261       .  A
N382        O394   1.262       .  A
C384        C385   1.401       .  A
C384        N389   1.434       .  S
C385        C386   1.405       .  A
C385        H390   1.083       .  S
C386        C387   1.417       .  A
C387        C388   1.405       .  A
C387        N391   1.428       .  S
C388        H392   1.081       .  S
N389        O399   1.262       .  A
N389        O400   1.262       .  A
N391        O397   1.261       .  A
N391        O398   1.262       .  A
C401        C402   1.405       .  A
C401        C406   1.403       .  A
C401        H411   1.080       .  S
C402        C407   1.502       .  S
C402        C403   1.416       .  A
C403        C404   1.408       .  A
C403        N408   1.433       .  S
C404        C405   1.408       .  A
C404        H409   1.080       .  S
C405        C406   1.417       .  A
C406        N410   1.430       .  S
C407        C412   1.416       .  A
C407        C416   1.410       .  A
N408        O423   1.262       .  A
N408        O424   1.262       .  A
N410        O421   1.262       .  A
N410        O422   1.262       .  A
C412        C413   1.405       .  A
C412        N417   1.434       .  S
C413        C414   1.405       .  A
C413        H418   1.079       .  S
C414        C415   1.408       .  A
C415        C416   1.407       .  A
C415        N419   1.429       .  S
C416        H420   1.078       .  S
N417        O427   1.262       .  A
N417        O428   1.262       .  A
N419        O425   1.262       .  A
N419        O426   1.262       .  A
C429        C430   1.408       .  A
C429        C434   1.408       .  A
C429        H439   1.097       .  S
C430        C435   1.495       .  S
C430        C431   1.416   1_545  A
C431        C432   1.393       .  A
C431        N436   1.436       .  S
C432        C433   1.399       .  A
C432        H437   1.101       .  S
C433        C434   1.412   1_565  A
C434        N438   1.431       .  S
C435        C440   1.410       .  A
C435        C444   1.406       .  A
N436        O451   1.263       .  A
N436        O452   1.262       .  A
N438        O449   1.262       .  A
N438        O450   1.262       .  A
C440        C441   1.403       .  A
C440        N445   1.429       .  S
C441        C442   1.410       .  A
C441        H446   1.085       .  S
C442        C443   1.414       .  A
C443        C444   1.400       .  A
C443        N447   1.429       .  S
C444        H448   1.086       .  S
N445        O455   1.262       .  A
N445        O456   1.262       .  A
N447        O453   1.262       .  A
N447        O454   1.262   1_545  A
C457        C458   1.400       .  A
C457        C462   1.400       .  A
C457        H467   1.085       .  S
C458        C463   1.483       .  S
C458        C459   1.414       .  A
C459        C460   1.402       .  A
C459        N464   1.435       .  S
C460        C461   1.403       .  A
C460        H465   1.085       .  S
C461        C462   1.414       .  A
C462        N466   1.429       .  S
C463        C468   1.411   1_565  A
C463        C472   1.406       .  A
N464        O479   1.262       .  A
N464        O480   1.263   1_565  A
N466        O477   1.262       .  A
N466        O478   1.262       .  A
C468        C469   1.397       .  A
C468        N473   1.438       .  S
C469        C470   1.406       .  A
C469        H474   1.078       .  S
C470        C471   1.410   1_545  A
C471        C472   1.407       .  A
C471        N475   1.429       .  S
C472        H476   1.079       .  S
N473        O483   1.263       .  A
N473        O484   1.263       .  A
N475        O481   1.262       .  A
N475        O482   1.262       .  A
C485        C486   1.399       .  A
C485        C490   1.408       .  A
C485        H495   1.082   1_655  S
C486        C491   1.501   1_645  S
C486        C487   1.416       .  A
C487        C488   1.414       .  A
C487        N492   1.435       .  S
C488        C489   1.409       .  A
C488        H493   1.082       .  S
C489        C490   1.420       .  A
C490        N494   1.435       .  S
C491        C496   1.410   1_565  A
C491        C500   1.410       .  A
N492        O507   1.262   1_545  A
N492        O508   1.262       .  A
N494        O505   1.263       .  A
N494        O506   1.262       .  A
C496        C497   1.405   1_545  A
C496        N501   1.434       .  S
C497        C498   1.414       .  A
C497        H502   1.082   1_565  S
C498        C499   1.412       .  A
C499        C500   1.413       .  A
C499        N503   1.427       .  S
C500        H504   1.082       .  S
N501        O511   1.263       .  A
N501        O512   1.262       .  A
N503        O509   1.262       .  A
N503        O510   1.262       .  A
C513        C514   1.400       .  A
C513        C518   1.395       .  A
C513        H523   1.082       .  S
C514        C519   1.486       .  S
C514        C515   1.415   1_565  A
C515        C516   1.402   1_545  A
C515        N520   1.434       .  S
C516        C517   1.404       .  A
C516        H521   1.082   1_565  S
C517        C518   1.418       .  A
C518        N522   1.429       .  S
C519        C524   1.415       .  A
C519        C528   1.405   1_565  A
N520        O535   1.262       .  A
N520        O536   1.262       .  A
N522        O533   1.260       .  A
N522        O534   1.262       .  A
C524        C525   1.400       .  A
C524        N529   1.432       .  S
C525        C526   1.400   1_565  A
C525        H530   1.082       .  S
C526        C527   1.405       .  A
C527        C528   1.398       .  A
C527        N531   1.430       .  S
C528        H532   1.081       .  S
N529        O539   1.262       .  A
N529        O540   1.262       .  A
N531        O537   1.262       .  A
N531        O538   1.262       .  A
C541        C542   1.407       .  A
C541        C546   1.409       .  A
C541        H551   1.080       .  S
C542        C547   1.500   1_455  S
C542        C543   1.409       .  A
C543        C544   1.407       .  A
C543        N548   1.431       .  S
C544        C545   1.412       .  A
C544        H549   1.081       .  S
C545        C546   1.416       .  A
C546        N550   1.428       .  S
C547        C552   1.409       .  A
C547        C556   1.406       .  A
N548        O563   1.262       .  A
N548        O564   1.262   1_455  A
N550        O561   1.262       .  A
N550        O562   1.261       .  A
C552        C553   1.407       .  A
C552        N557   1.430   1_655  S
C553        C554   1.412       .  A
C553        H558   1.081       .  S
C554        C555   1.418       .  A
C555        C556   1.410       .  A
C555        N559   1.429       .  S
C556        H560   1.082       .  S
N557        O567   1.262       .  A
N557        O568   1.262       .  A
N559        O565   1.262       .  A
N559        O566   1.261       .  A
C569        C570   1.399       .  A
C569        C574   1.396       .  A
C569        H579   1.083       .  S
C570        C575   1.480       .  S
C570        C571   1.413       .  A
C571        C572   1.406       .  A
C571        N576   1.431       .  S
C572        C573   1.402       .  A
C572        H577   1.082       .  S
C573        C574   1.411       .  A
C574        N578   1.432       .  S
C575        C580   1.408       .  A
C575        C584   1.401       .  A
N576        O591   1.262       .  A
N576        O592   1.262       .  A
N578        O589   1.262       .  A
N578        O590   1.261       .  A
C580        C581   1.396       .  A
C580        N585   1.432       .  S
C581        C582   1.407       .  A
C581        H586   1.081       .  S
C582        C583   1.417       .  A
C583        C584   1.405       .  A
C583        N587   1.430       .  S
C584        H588   1.081       .  S
N585        O595   1.262       .  A
N585        O596   1.262       .  A
N587        O593   1.262       .  A
N587        O594   1.262       .  A
C597        C598   1.403       .  A
C597        C602   1.407       .  A
C597        H607   1.082       .  S
C598        C603   1.482       .  S
C598        C599   1.404       .  A
C599        C600   1.397       .  A
C599        N604   1.429       .  S
C600        C601   1.409       .  A
C600        H605   1.082       .  S
C601        C602   1.417       .  A
C602        N606   1.429       .  S
C603        C608   1.406       .  A
C603        C612   1.401       .  A
N604        O619   1.262       .  A
N604        O620   1.262       .  A
N606        O617   1.262       .  A
N606        O618   1.262       .  A
C608        C609   1.405       .  A
C608        N613   1.430       .  S
C609        C610   1.409       .  A
C609        H614   1.081       .  S
C610        C611   1.417       .  A
C611        C612   1.403       .  A
C611        N615   1.435       .  S
C612        H616   1.081       .  S
N613        O623   1.262       .  A
N613        O624   1.262       .  A
N615        O621   1.263       .  A
N615        O622   1.262       .  A
C625        C626   1.409       .  A
C625        C630   1.410       .  A
C625        H635   1.081       .  S
C626        C631   1.511   1_556  S
C626        C627   1.415   1_556  A
C627        C628   1.411       .  A
C627        N632   1.433       .  S
C628        C629   1.410   1_554  A
C628        H633   1.082       .  S
C629        C630   1.416       .  A
C630        N634   1.432       .  S
C631        C636   1.413   1_554  A
C631        C640   1.413       .  A
N632        O647   1.262       .  A
N632        O648   1.262       .  A
N634        O645   1.262       .  A
N634        O646   1.262       .  A
C636        C637   1.404       .  A
C636        N641   1.434       .  S
C637        C638   1.411   1_556  A
C637        H642   1.082       .  S
C638        C639   1.414       .  A
C639        C640   1.417       .  A
C639        N643   1.431       .  S
C640        H644   1.081       .  S
N641        O651   1.262       .  A
N641        O652   1.262       .  A
N643        O649   1.262       .  A
N643        O650   1.262       .  A
C653        C654   1.408   1_556  A
C653        C658   1.400       .  A
C653        H663   1.083       .  S
C654        C659   1.476       .  S
C654        C655   1.412       .  A
C655        C656   1.393       .  A
C655        N660   1.435       .  S
C656        C657   1.400   1_554  A
C656        H661   1.084       .  S
C657        C658   1.402       .  A
C658        N662   1.431       .  S
C659        C664   1.412       .  A
C659        C668   1.405   1_455  A
N660        O675   1.262       .  A
N660        O676   1.263       .  A
N662        O673   1.262       .  A
N662        O674   1.262       .  A
C664        C665   1.398   1_455  A
C664        N669   1.437       .  S
C665        C666   1.406       .  A
C665        H670   1.083       .  S
C666        C667   1.407       .  A
C667        C668   1.396       .  A
C667        N671   1.429   1_554  S
C668        H672   1.083   1_554  S
N669        O679   1.262       .  A
N669        O680   1.262       .  A
N671        O677   1.262       .  A
N671        O678   1.262       .  A
C681        C682   1.403       .  A
C681        C686   1.408       .  A
C681        H691   1.082       .  S
C682        C687   1.495       .  S
C682        C683   1.414       .  A
C683        C684   1.408       .  A
C683        N688   1.432       .  S
C684        C685   1.405       .  A
C684        H689   1.083       .  S
C685        C686   1.417       .  A
C686        N690   1.439       .  S
C687        C692   1.412       .  A
C687        C696   1.402       .  A
N688        O703   1.262       .  A
N688        O704   1.262       .  A
N690        O701   1.263       .  A
N690        O702   1.263       .  A
C692        C693   1.410       .  A
C692        N697   1.433       .  S
C693        C694   1.412       .  A
C693        H698   1.082       .  S
C694        C695   1.415       .  A
C695        C696   1.404       .  A
C695        N699   1.425       .  S
C696        H700   1.083       .  S
N697        O707   1.262       .  A
N697        O708   1.262       .  A
N699        O705   1.262       .  A
N699        O706   1.262       .  A
C709        C710   1.406   1_554  A
C709        C714   1.402       .  A
C709        H719   1.081       .  S
C710        C715   1.501       .  S
C710        C711   1.415       .  A
C711        C712   1.409       .  A
C711        N716   1.432       .  S
C712        C713   1.406   1_556  A
C712        H717   1.082       .  S
C713        C714   1.413       .  A
C714        N718   1.431       .  S
C715        C720   1.413   1_556  A
C715        C724   1.413       .  A
N716        O731   1.262       .  A
N716        O732   1.262       .  A
N718        O729   1.262       .  A
N718        O730   1.262       .  A
C720        C721   1.399       .  A
C720        N725   1.435       .  S
C721        C722   1.408   1_554  A
C721        H726   1.080       .  S
C722        C723   1.410       .  A
C723        C724   1.413       .  A
C723        N727   1.429       .  S
C724        H728   1.078       .  S
N725        O735   1.262       .  A
N725        O736   1.263       .  A
N727        O733   1.262       .  A
N727        O734   1.262       .  A
C737        C738   1.408       .  A
C737        C742   1.407       .  A
C737        H747   1.080       .  S
C738        C743   1.505   1_665  S
C738        C739   1.416   1_556  A
C739        C740   1.409       .  A
C739        N744   1.433       .  S
C740        C741   1.406   1_554  A
C740        H745   1.080       .  S
C741        C742   1.413       .  A
C742        N746   1.430       .  S
C743        C748   1.413       .  A
C743        C752   1.414   1_556  A
N744        O759   1.262   1_565  A
N744        O760   1.262   1_655  A
N746        O757   1.262       .  A
N746        O758   1.262       .  A
C748        C749   1.402       .  A
C748        N753   1.433   1_545  S
C749        C750   1.409       .  A
C749        H754   1.079       .  S
C750        C751   1.408   1_556  A
C751        C752   1.412       .  A
C751        N755   1.428       .  S
C752        H756   1.079       .  S
N753        O763   1.262       .  A
N753        O764   1.262       .  A
N755        O761   1.262       .  A
N755        O762   1.262       .  A
C765        C766   1.406   1_554  A
C765        C770   1.401       .  A
C765        H775   1.079       .  S
C766        C771   1.481       .  S
C766        C767   1.413       .  A
C767        C768   1.396       .  A
C767        N772   1.435       .  S
C768        C769   1.402   1_556  A
C768        H773   1.080       .  S
C769        C770   1.407       .  A
C770        N774   1.431       .  S
C771        C776   1.414       .  A
C771        C780   1.400   1_545  A
N772        O787   1.262   1_545  A
N772        O788   1.262       .  A
N774        O785   1.262       .  A
N774        O786   1.262       .  A
C776        C777   1.406       .  A
C776        N781   1.432       .  S
C777        C778   1.402   1_545  A
C777        H782   1.079       .  S
C778        C779   1.409       .  A
C779        C780   1.388       .  A
C779        N783   1.429       .  S
C780        H784   1.079       .  S
N781        O791   1.262   1_556  A
N781        O792   1.262       .  A
N783        O789   1.261       .  A
N783        O790   1.262       .  A
C793        C794   1.403       .  A
C793        C798   1.404       .  A
C793        H803   1.084       .  S
C794        C799   1.486       .  S
C794        C795   1.414       .  A
C795        C796   1.402       .  A
C795        N800   1.438   1_565  S
C796        C797   1.405       .  A
C796        H801   1.084       .  S
C797        C798   1.413       .  A
C798        N802   1.429       .  S
C799        C804   1.412   1_565  A
C799        C808   1.404       .  A
N800        O815   1.263       .  A
N800        O816   1.263       .  A
N802        O813   1.262       .  A
N802        O814   1.262       .  A
C804        C805   1.399       .  A
C804        N809   1.437       .  S
C805        C806   1.407       .  A
C805        H810   1.071       .  S
C806        C807   1.415   1_545  A
C807        C808   1.407       .  A
C807        N811   1.429       .  S
C808        H812   1.077       .  S
N809        O819   1.263       .  A
N809        O820   1.263       .  A
N811        O817   1.262       .  A
N811        O818   1.262       .  A
C821        C822   1.402       .  A
C821        C826   1.397       .  A
C821        H831   1.081       .  S
C822        C827   1.484       .  S
C822        C823   1.410       .  A
C823        C824   1.405       .  A
C823        N828   1.430       .  S
C824        C825   1.407       .  A
C824        H829   1.081       .  S
C825        C826   1.407       .  A
C826        N830   1.425       .  S
C827        C832   1.411   1_545  A
C827        C836   1.403       .  A
N828        O843   1.262       .  A
N828        O844   1.262       .  A
N830        O841   1.262       .  A
N830        O842   1.261       .  A
C832        C833   1.395       .  A
C832        N837   1.431       .  S
C833        C834   1.404       .  A
C833        H838   1.081       .  S
C834        C835   1.417   1_565  A
C835        C836   1.405       .  A
C835        N839   1.429       .  S
C836        H840   1.081       .  S
N837        O847   1.262       .  A
N837        O848   1.261       .  A
N839        O845   1.262       .  A
N839        O846   1.262       .  A
