geometry optimzed in LAMMPS
_audit_creation_date              2020-12-01 
_audit_creation_method            'lammps2cif' 
_symmetry_space_group_name_H-M    'P1' 
_symmetry_Int_Tables_number       1 
_symmetry_cell_setting            triclinic 
loop_ 
_symmetry_equiv_pos_as_xyz 
  x,y,z 
_cell_length_a                    43.24815574 
_cell_length_b                    35.53279567793551 
_cell_length_c                    41.84049587626449 
_cell_angle_alpha                 90.03470019352775 
_cell_angle_beta                  89.8816725790336 
_cell_angle_gamma                 90.47054300136618 
loop_ 
_atom_site_label 
_atom_site_type_symbol 
_atom_site_fract_x 
_atom_site_fract_y 
_atom_site_fract_z 
_atom_site_charge 
Fe1        Fe  0.37932217  0.87120421  0.33114955     1.65800
Fe2        Fe  0.33373444  0.86456943  0.26712505     1.73200
Fe3        Fe  0.37589106  0.79062517  0.28916835     1.54400
O4          O  0.42122407  0.80100248  0.30392428    -0.82600
O5          O  0.30217396  0.82460536  0.27857548    -0.80900
O6          O  0.42390436  0.86211135  0.31609754    -0.85100
O7          O  0.38133871  0.82401429  0.36190311    -0.80000
O8          O  0.38989329  0.80276946  0.24383606    -0.81800
O9          O  0.31367928  0.89839696  0.30240310    -0.84500
C10         C  0.37235374  0.78963342  0.36019808     0.96300
C11         C  0.43666079  0.83111153  0.30902830     1.03700
O12         O  0.36321549  0.84206842  0.29592628    -1.13500
O13         O  0.36471307  0.90532177  0.25489107    -0.75900
O14         O  0.38002952  0.92157584  0.30380295    -0.79400
O15         O  0.36294510  0.77520303  0.33425405    -0.80100
C16         C  0.37739306  0.92850117  0.27381515     0.95200
O17         O  0.33492118  0.88051008  0.34786528    -0.78000
O18         O  0.34795299  0.83238260  0.22771716    -0.83200
C19         C  0.30575364  0.79044994  0.27129299     0.97800
C20         C  0.37080617  0.81087795  0.22218109     1.03700
O21         O  0.33210453  0.77456228  0.27226758    -0.78900
C22         C  0.31199140  0.89327601  0.33245261     1.02000
Fe23       Fe  0.62770272  0.86866333  0.33568734     1.65800
Fe24       Fe  0.67641095  0.86080076  0.27392658     1.73200
Fe25       Fe  0.63115548  0.78785130  0.29391932     1.54400
O26         O  0.64281557  0.77270107  0.33946360    -0.82600
O27         O  0.66215813  0.82952771  0.23374754    -0.80900
O28         O  0.62424104  0.82165226  0.36676561    -0.85100
O29         O  0.58348182  0.85988755  0.31930296    -0.80000
O30         O  0.67497128  0.77055945  0.27804868    -0.81800
O31         O  0.64805737  0.90318407  0.26052390    -0.84500
C32         C  0.57030677  0.82878197  0.31273852     0.96300
C33         C  0.63426581  0.78786706  0.36539338     1.03700
O34         O  0.64470945  0.83922935  0.30114767    -1.13500
O35         O  0.69657183  0.89339325  0.31020394    -0.75900
O36         O  0.67137371  0.87765032  0.35422596    -0.79400
O37         O  0.58546192  0.79875132  0.30749141    -0.80100
C38         C  0.69569300  0.88953181  0.34048115     0.95200
O39         O  0.62877106  0.91901277  0.30803714    -0.78000
O40         O  0.70577895  0.81971650  0.28657106    -0.83200
C41         C  0.63876338  0.80902795  0.22688128     0.97800
C42         C  0.70176887  0.78587632  0.27853932     1.03700
O43         O  0.61900227  0.80033855  0.24804594    -0.78900
C44         C  0.63387062  0.92607446  0.27836205     1.02000
Fe45       Fe  0.62628571  0.63439990  0.08506045     1.65800
Fe46       Fe  0.67424437  0.64046250  0.02281242     1.73200
Fe47       Fe  0.63089129  0.71424673  0.04253575     1.54400
O48         O  0.58543145  0.70432720  0.05770642    -0.82600
O49         O  0.70472512  0.68120283  0.03513040    -0.80900
O50         O  0.58247086  0.64314085  0.06881400    -0.85100
O51         O  0.62350627  0.68220936  0.11514639    -0.80000
O52         O  0.61801844  0.70047932  0.49819455    -0.81800
O53         O  0.69369013  0.60777060  0.05927850    -0.84500
C54         C  0.63366101  0.71610907  0.11325166     0.96300
C55         C  0.56981404  0.67469370  0.06418682     1.03700
O56         O  0.64346341  0.66294312  0.05011467    -1.13500
O57         O  0.64445272  0.59862411  0.01007078    -0.75900
O58         O  0.62645148  0.58341394  0.05832585    -0.79400
O59         O  0.64359826  0.73009266  0.08735075    -0.80100
C60         C  0.63064325  0.57588414  0.02860507     0.95200
O61         O  0.66971777  0.62568858  0.10334561    -0.78000
O62         O  0.66040501  0.67072092  0.48287062    -0.83200
C63         C  0.70133690  0.71504154  0.02688896     0.97800
C64         C  0.63738593  0.69186607  0.47677169     1.03700
O65         O  0.67484762  0.73054708  0.02593122    -0.78900
C66         C  0.69331030  0.61247361  0.08950326     1.02000
Fe67       Fe  0.37976749  0.63203626  0.08342710     1.65800
Fe68       Fe  0.33376394  0.63879692  0.02011450     1.73200
Fe69       Fe  0.37504392  0.71339236  0.04303931     1.54400
O70         O  0.36106797  0.72610868  0.08822717    -0.82600
O71         O  0.34808089  0.67239714  0.47928266    -0.80900
O72         O  0.38230785  0.67844301  0.11474212    -0.85100
O73         O  0.42386428  0.64265999  0.06796605    -0.80000
O74         O  0.33116185  0.72836405  0.02623857    -0.81800
O75         O  0.36471198  0.59896356  0.00686563    -0.84500
C76         C  0.43629534  0.67463503  0.06281879     0.96300
C77         C  0.37094642  0.71149048  0.11374744     1.03700
O78         O  0.36341255  0.66129761  0.04870468    -1.13500
O79         O  0.31420099  0.60362104  0.05515497    -0.75900
O80         O  0.33565170  0.62199563  0.10058349    -0.79400
O81         O  0.42043456  0.70423899  0.05817647    -0.80100
C82         C  0.31277829  0.60854669  0.08531909     0.95200
O83         O  0.37975713  0.58211765  0.05560107    -0.78000
O84         O  0.30242050  0.67719121  0.03369051    -0.83200
C85         C  0.37095444  0.69420838  0.47328702     0.97800
C86         C  0.30519588  0.71107997  0.02556265     1.03700
O87         O  0.39003103  0.70284634  0.49502390    -0.78900
C88         C  0.37619100  0.57500598  0.02577441     1.02000
Fe89       Fe  0.13029379  0.87098853  0.40844104     1.65800
Fe90       Fe  0.17637193  0.86355018  0.47200545     1.73200
Fe91       Fe  0.13339572  0.78972576  0.44943360     1.54400
O92         O  0.08789852  0.79983609  0.43453402    -0.82600
O93         O  0.20692875  0.82355515  0.45937540    -0.80900
O94         O  0.08560881  0.86085154  0.42290983    -0.85100
O95         O  0.12858450  0.82467558  0.37692699    -0.80000
O96         O  0.11771248  0.79875094  0.99423356    -0.81800
O97         O  0.19731185  0.89750668  0.43695236    -0.84500
C98         C  0.13910938  0.79120379  0.37821548     0.96300
C99         C  0.07242091  0.82956916  0.42910025     1.03700
O100        O  0.14619409  0.84157277  0.44339966    -1.13500
O101        O  0.14647881  0.90496587  0.48491190    -0.75900
O102        O  0.12987320  0.92075623  0.43639821    -0.79400
O103        O  0.14720080  0.77583739  0.40414442    -0.80100
C104        C  0.13388768  0.92820679  0.46610244     0.95200
O105        O  0.17452998  0.88114565  0.39182441    -0.78000
O106        O  0.15980196  0.82781557  0.01169163    -0.83200
C107        C  0.20327474  0.78988356  0.46793478     0.97800
C108        C  0.13624045  0.80669190  0.01664715     1.03700
O109        O  0.17693458  0.77347204  0.46668924    -0.78900
C110        C  0.19808913  0.89338999  0.40673766     1.02000
Fe111      Fe  0.87916115  0.87188684  0.41126146     1.65800
Fe112      Fe  0.83340339  0.86280872  0.47497809     1.73200
Fe113      Fe  0.87671499  0.79056702  0.45206282     1.54400
O114        O  0.86332402  0.77625002  0.40706714    -0.82600
O115        O  0.84980064  0.82969386  0.01526178    -0.80900
O116        O  0.88115030  0.82569500  0.37958000    -0.85100
O117        O  0.92392210  0.86315164  0.42521989    -0.80000
O118        O  0.83271557  0.77322106  0.46861181    -0.81800
O119        O  0.86385578  0.90388808  0.48836627    -0.84500
C120        C  0.93742498  0.83253783  0.43177209     0.96300
C121        C  0.87091690  0.79185530  0.38103417     1.03700
O122        O  0.86358290  0.84184118  0.44610902    -1.13500
O123        O  0.81302076  0.89756618  0.44044194    -0.75900
O124        O  0.83486145  0.88031803  0.39504765    -0.79400
O125        O  0.92228486  0.80216492  0.43728116    -0.80100
C126        C  0.81186834  0.89308895  0.41023011     0.95200
O127        O  0.87911026  0.92159120  0.43976847    -0.78000
O128        O  0.80271462  0.82286708  0.46144316    -0.83200
C129        C  0.87273526  0.80827163  0.02043147     0.97800
C130        C  0.80611494  0.78866700  0.46851444     1.03700
O131        O  0.89199572  0.80147665  0.99850799    -0.78900
C132        C  0.87590812  0.92813263  0.46978374     1.02000
Fe133      Fe  0.87647304  0.63002987  0.16268724     1.65800
Fe134      Fe  0.82988246  0.64034433  0.22608254     1.73200
Fe135      Fe  0.87598983  0.71165174  0.20328665     1.54400
O136        O  0.92131414  0.69817779  0.19044603    -0.82600
O137        O  0.80046242  0.68187617  0.21374580    -0.80900
O138        O  0.92144168  0.63743365  0.17732312    -0.85100
O139        O  0.88043884  0.67577786  0.13089182    -0.80000
O140        O  0.88802751  0.70091334  0.24918597    -0.81800
O141        O  0.80834453  0.60720079  0.19091518    -0.84500
C142        C  0.87243912  0.71027443  0.13181200     0.96300
C143        C  0.93561133  0.66754426  0.18497897     1.03700
O144        O  0.86114153  0.66061238  0.19742544    -1.13500
O145        O  0.85824511  0.59734881  0.23901322    -0.75900
O146        O  0.87466888  0.58039623  0.19069019    -0.79400
O147        O  0.86485299  0.72607847  0.15772785    -0.80100
C148        C  0.87000527  0.57319705  0.22032852     0.95200
O149        O  0.83213272  0.62246483  0.14586234    -0.78000
O150        O  0.84516052  0.67262561  0.26546923    -0.83200
C151        C  0.80542397  0.71645922  0.21864121     0.97800
C152        C  0.86856829  0.69383073  0.27086954     1.03700
O153        O  0.83253348  0.73094496  0.21807102    -0.78900
C154        C  0.80836317  0.61057499  0.16058156     1.02000
Fe155      Fe  0.12809108  0.63069253  0.15972295     1.65800
Fe156      Fe  0.17729917  0.64013557  0.22065224     1.73200
Fe157      Fe  0.13169129  0.71193522  0.20108413     1.54400
O158        O  0.14112199  0.72694768  0.15525379    -0.82600
O159        O  0.16507490  0.67312801  0.26089103    -0.80900
O160        O  0.12415783  0.67691665  0.12827409    -0.85100
O161        O  0.08357161  0.63885913  0.17584092    -0.80000
O162        O  0.17625166  0.73026750  0.21419202    -0.81800
O163        O  0.14856657  0.59772372  0.23558719    -0.84500
C164        C  0.07039128  0.66955823  0.18328652     0.96300
C165        C  0.13230956  0.71158242  0.12951714     1.03700
O166        O  0.14507911  0.66077956  0.19396486    -1.13500
O167        O  0.19634632  0.60618649  0.18467383    -0.75900
O168        O  0.17175359  0.62277227  0.14092281    -0.79400
O169        O  0.08574812  0.69933883  0.18983769    -0.80100
C170        C  0.19588484  0.61075029  0.15447545     0.95200
O171        O  0.13000688  0.58089426  0.18796593    -0.78000
O172        O  0.20640656  0.68100852  0.20535678    -0.83200
C173        C  0.14190594  0.69368388  0.26784571     0.97800
C174        C  0.20288505  0.71509810  0.21275538     1.03700
O175        O  0.12125287  0.70048168  0.24744621    -0.78900
C176        C  0.13554556  0.57368042  0.21748249     1.02000
Fe177      Fe  0.63144775  0.36929866  0.41670357     1.65800
Fe178      Fe  0.67701920  0.35965990  0.48076459     1.73200
Fe179      Fe  0.63072735  0.28836885  0.45897520     1.54400
O180        O  0.58599472  0.30067281  0.44439361    -0.82600
O181        O  0.70577479  0.31751001  0.46862933    -0.80900
O182        O  0.58599634  0.36080891  0.42933762    -0.85100
O183        O  0.63072477  0.32256130  0.38521205    -0.80000
O184        O  0.61717421  0.30334250  0.00363796    -0.81800
O185        O  0.69929103  0.39248947  0.44615800    -0.84500
C186        C  0.63869185  0.28793284  0.38733856     0.96300
C187        C  0.57187902  0.33073602  0.43713947     1.03700
O188        O  0.64597524  0.33926118  0.45205837    -1.13500
O189        O  0.64894058  0.40288857  0.49330447    -0.75900
O190        O  0.63053011  0.41898643  0.44547541    -0.79400
O191        O  0.64309037  0.27205119  0.41399815    -0.80100
C192        C  0.63482033  0.42575857  0.47538579     0.95200
O193        O  0.67603789  0.37849266  0.40076224    -0.78000
O194        O  0.66033525  0.33046279  0.02004359    -0.83200
C195        C  0.70067982  0.28350257  0.47578827     0.97800
C196        C  0.63638481  0.31032803  0.02559300     1.03700
O197        O  0.67353106  0.26934611  0.47555170    -0.78900
C198        C  0.69991102  0.38891675  0.41596395     1.02000
Fe199      Fe  0.37994403  0.36833518  0.41173788     1.65800
Fe200      Fe  0.33334428  0.36032571  0.47513591     1.73200
Fe201      Fe  0.37852786  0.28850622  0.45449265     1.54400
O202        O  0.36633820  0.27169045  0.40962231    -0.82600
O203        O  0.34651946  0.33040155  0.01253419    -0.80900
O204        O  0.38316307  0.32101248  0.38126951    -0.85100
O205        O  0.42465494  0.36138400  0.42648823    -0.80000
O206        O  0.33504898  0.27031600  0.47120565    -0.81800
O207        O  0.36248171  0.40310795  0.48779991    -0.84500
C208        C  0.43828761  0.33089472  0.43304937     0.96300
C209        C  0.37443759  0.28657415  0.38338277     1.03700
O210        O  0.36426445  0.33910372  0.44702558    -1.13500
O211        O  0.31273952  0.39307423  0.43949472    -0.75900
O212        O  0.33575247  0.37566955  0.39470457    -0.79400
O213        O  0.42365307  0.30064959  0.43981851    -0.80100
C214        C  0.31243576  0.38861424  0.40927113     0.95200
O215        O  0.37889835  0.41872186  0.43897791    -0.78000
O216        O  0.30377740  0.31862225  0.46268428    -0.83200
C217        C  0.37015879  0.31023207  0.01840057     0.97800
C218        C  0.30820128  0.28498895  0.47104199     1.03700
O219        O  0.39022495  0.30453205  0.99702815    -0.78900
C220        C  0.37450224  0.42664271  0.46857432     1.02000
Fe221      Fe  0.37893580  0.13176453  0.16066641     1.65800
Fe222      Fe  0.33115116  0.14078540  0.22269815     1.73200
Fe223      Fe  0.37703988  0.21276199  0.20255386     1.54400
O224        O  0.42258360  0.20082697  0.18901060    -0.82600
O225        O  0.30217582  0.18162807  0.20849256    -0.80900
O226        O  0.42336520  0.14008378  0.17556830    -0.85100
O227        O  0.38180644  0.17846236  0.12945976    -0.80000
O228        O  0.38890349  0.20044506  0.24861686    -0.81800
O229        O  0.31121585  0.10667741  0.18742975    -0.84500
C230        C  0.37335347  0.21288171  0.13077065     0.96300
C231        C  0.43709374  0.17071119  0.18221460     1.03700
O232        O  0.36293019  0.16163806  0.19533930    -1.13500
O233        O  0.35977664  0.09917306  0.23665286    -0.75900
O234        O  0.37832815  0.08203979  0.18915306    -0.79400
O235        O  0.36589064  0.22828018  0.15699692    -0.80100
C236        C  0.37388765  0.07590177  0.21912354     0.95200
O237        O  0.33514687  0.12300005  0.14292622    -0.78000
O238        O  0.34493634  0.17315695  0.26254744    -0.83200
C239        C  0.30622685  0.21517893  0.21741119     0.97800
C240        C  0.36852483  0.19325330  0.26954208     1.03700
O241        O  0.33311054  0.23033731  0.21820326    -0.78900
C242        C  0.31138492  0.11058804  0.15720574     1.02000
Fe243      Fe  0.62883285  0.13081306  0.16512174     1.65800
Fe244      Fe  0.67811946  0.14015644  0.22637012     1.73200
Fe245      Fe  0.63064674  0.21037965  0.20853820     1.54400
O246        O  0.64015489  0.22821539  0.16344443    -0.82600
O247        O  0.66547786  0.17258212  0.26731768    -0.80900
O248        O  0.62526583  0.17827986  0.13473129    -0.85100
O249        O  0.58419931  0.13765732  0.18079741    -0.80000
O250        O  0.67470086  0.22953064  0.22272777    -0.81800
O251        O  0.65011574  0.09689140  0.24042495    -0.84500
C252        C  0.57054593  0.16766030  0.18894098     0.96300
C253        C  0.63251402  0.21325016  0.13710881     1.03700
O254        O  0.64553054  0.16034044  0.19976140    -1.13500
O255        O  0.69784529  0.10737577  0.18981929    -0.75900
O256        O  0.67240271  0.12330196  0.14633586    -0.79400
O257        O  0.58517123  0.19770767  0.19608330    -0.80100
C258        C  0.69667029  0.11127744  0.15954151     0.95200
O259        O  0.63028122  0.08065494  0.19301504    -0.78000
O260        O  0.70630022  0.18221233  0.21180382    -0.83200
C261        C  0.64160284  0.19220006  0.27383150     0.97800
C262        C  0.70179674  0.21576319  0.22024971     1.03700
O263        O  0.62001964  0.19426728  0.25385599    -0.78900
C264        C  0.63558163  0.07378516  0.22270170     1.02000
Fe265      Fe  0.87938457  0.36789624  0.33549470     1.65800
Fe266      Fe  0.83230530  0.35779042  0.27267580     1.73200
Fe267      Fe  0.87749606  0.28670513  0.29449982     1.54400
O268        O  0.92271598  0.29897508  0.30873731    -0.82600
O269        O  0.80274281  0.31636988  0.28575437    -0.80900
O270        O  0.92402713  0.36014932  0.32025456    -0.85100
O271        O  0.88197313  0.32132286  0.36692337    -0.80000
O272        O  0.89063226  0.29974749  0.24925440    -0.81800
O273        O  0.81114036  0.39060302  0.30816412    -0.84500
C274        C  0.87227411  0.28716254  0.36559529     0.96300
C275        C  0.93754689  0.32960885  0.31346519     1.03700
O276        O  0.86332152  0.33759165  0.30099245    -1.13500
O277        O  0.86106491  0.40079553  0.25943160    -0.75900
O278        O  0.87822637  0.41768968  0.30753560    -0.79400
O279        O  0.86497859  0.27143759  0.33953307    -0.80100
C280        C  0.87313271  0.42501635  0.27800441     0.95200
O281        O  0.83557979  0.37645935  0.35285079    -0.78000
O282        O  0.84722556  0.32534335  0.23307486    -0.83200
C283        C  0.80720263  0.28229219  0.27902306     0.97800
C284        C  0.87089756  0.30492942  0.22766958     1.03700
O285        O  0.83412243  0.26790580  0.27838936    -0.78900
C286        C  0.81161329  0.38787511  0.33851589     1.02000
Fe287      Fe  0.12947574  0.36911489  0.33518419     1.65800
Fe288      Fe  0.17713422  0.36025659  0.27289005     1.73200
Fe289      Fe  0.13228799  0.28763926  0.29424358     1.54400
O290        O  0.14423894  0.27307492  0.33984913    -0.82600
O291        O  0.16306175  0.32725425  0.23309501    -0.80900
O292        O  0.12642553  0.32269132  0.36683771    -0.85100
O293        O  0.08492312  0.36023080  0.31987165    -0.80000
O294        O  0.17613416  0.27031255  0.27830183    -0.81800
O295        O  0.14833501  0.40237945  0.25902357    -0.84500
C296        C  0.07165846  0.32896563  0.31392413     0.96300
C297        C  0.13621866  0.28880206  0.36569890     1.03700
O298        O  0.14573007  0.33918079  0.30064817    -1.13500
O299        O  0.19740268  0.39422997  0.30839791    -0.75900
O300        O  0.17325682  0.37786434  0.35282546    -0.79400
O301        O  0.08681026  0.29903401  0.30821232    -0.80100
C302        C  0.19709469  0.39034563  0.33869176     0.95200
O303        O  0.13089527  0.41914906  0.30702576    -0.78000
O304        O  0.20651490  0.31972430  0.28701628    -0.83200
C305        C  0.13957573  0.30646507  0.22681286     0.97800
C306        C  0.20284841  0.28585542  0.27886742     1.03700
O307        O  0.11972966  0.29914845  0.24824967    -0.78900
C308        C  0.13580592  0.42635344  0.27735209     1.02000
Fe309      Fe  0.12928978  0.13129851  0.08242671     1.65800
Fe310      Fe  0.17720332  0.13935487  0.02031552     1.73200
Fe311      Fe  0.13263026  0.21200371  0.04055822     1.54400
O312        O  0.08689336  0.20014571  0.05387718    -0.82600
O313        O  0.20724453  0.17991238  0.03386580    -0.80900
O314        O  0.08501781  0.13924985  0.06672484    -0.85100
O315        O  0.12610152  0.17818943  0.11351051    -0.80000
O316        O  0.12139182  0.20020225  0.49783171    -0.81800
O317        O  0.19636426  0.10545086  0.05616701    -0.84500
C318        C  0.13490937  0.21266859  0.11215460     0.96300
C319        C  0.07177691  0.16996379  0.05986256     1.03700
O320        O  0.14593065  0.16088478  0.04773378    -1.13500
O321        O  0.14746225  0.09785199  0.00664751    -0.75900
O322        O  0.13044485  0.08081316  0.05475548    -0.79400
O323        O  0.14359661  0.22775313  0.08617603    -0.80100
C324        C  0.13497338  0.07371776  0.02500028     0.95200
O325        O  0.17291121  0.12347396  0.10038596    -0.78000
O326        O  0.16435631  0.17154009  0.48311576    -0.83200
C327        C  0.20350682  0.21382382  0.02600939     0.97800
C328        C  0.14142679  0.19262512  0.47682481     1.03700
O329        O  0.17693403  0.22926153  0.02558298    -0.78900
C330        C  0.19632227  0.11014103  0.08636888     1.02000
Fe331      Fe  0.87892036  0.12985742  0.08457998     1.65800
Fe332      Fe  0.83311142  0.13936900  0.02096628     1.73200
Fe333      Fe  0.87853897  0.21111911  0.04347232     1.54400
O334        O  0.86584357  0.22608631  0.08841086    -0.82600
O335        O  0.84783186  0.17199004  0.48463350    -0.80900
O336        O  0.88142035  0.17614881  0.11611924    -0.85100
O337        O  0.92391734  0.13802781  0.07037287    -0.80000
O338        O  0.83547918  0.22961264  0.02751050    -0.81800
O339        O  0.86220295  0.09708562  0.00817225    -0.84500
C340        C  0.93782972  0.16885160  0.06456562     0.96300
C341        C  0.87235377  0.21029883  0.11456464     1.03700
O342        O  0.86382079  0.16006858  0.04972497    -1.13500
O343        O  0.81122451  0.10607299  0.05595490    -0.75900
O344        O  0.83458134  0.12128972  0.10117669    -0.79400
O345        O  0.92338712  0.19902201  0.05817607    -0.80100
C346        C  0.81102224  0.10922689  0.08631793     0.95200
O347        O  0.87834096  0.08015170  0.05645901    -0.78000
O348        O  0.80350279  0.18084622  0.03307384    -0.83200
C349        C  0.87161039  0.19258953  0.47900851     0.97800
C350        C  0.80838434  0.21530402  0.02728789     1.03700
O351        O  0.89149047  0.19798185  0.50049532    -0.78900
C352        C  0.87490835  0.07345945  0.02656217     1.02000
C353        C  0.03747861  0.17044622  0.06026839    -0.07100
C354        C  0.02205238  0.14632545  0.08172883    -0.18200
C355        C  0.98985057  0.14601707  0.08442970     0.10100
C356        C  0.97208722  0.16976272  0.06463809    -0.07000
C357        C  0.98746139  0.19416593  0.04337509    -0.18200
C358        C  0.01973124  0.19450831  0.04072434     0.10200
S359        S  0.97321135  0.11602618  0.11479906    -0.33200
S360        S  0.03788552  0.22158715  0.51191119    -0.33200
H361        H  0.05913757  0.19349019  0.50368799     0.28200
H362        H  0.95117456  0.14249979  0.12481917     0.28200
H363        H  0.03525375  0.12819577  0.09732901     0.18800
H364        H  0.97517305  0.21080615  0.52870564     0.18800
C365        C  0.13662411  0.28627602  0.19538791    -0.07100
C366        C  0.11483596  0.25654018  0.19314903    -0.18200
C367        C  0.11340823  0.23256905  0.16653968     0.10100
C368        C  0.13491172  0.23701738  0.14131956    -0.07000
C369        C  0.15610632  0.26732023  0.14298798    -0.18200
C370        C  0.15686543  0.29214203  0.16913631     0.10200
S371        S  0.08274182  0.19790403  0.16592561    -0.33200
S372        S  0.18390839  0.33089040  0.16689722    -0.33200
H373        H  0.16267475  0.35748086  0.17846180     0.28200
H374        H  0.07469096  0.20460714  0.13385956     0.28200
H375        H  0.09867439  0.25143165  0.21251121     0.18800
H376        H  0.17227456  0.27198195  0.12353283     0.18800
C377        C  0.14027342  0.21332925  0.44607633    -0.07100
C378        C  0.16663321  0.23412403  0.43692278    -0.18200
C379        C  0.16569162  0.26016895  0.41174645     0.10100
C380        C  0.13770637  0.26579094  0.39507776    -0.07000
C381        C  0.11156439  0.24436848  0.40366896    -0.18200
C382        C  0.11259165  0.21811660  0.42870164     0.10200
S383        S  0.20109204  0.28507965  0.40223576    -0.33200
S384        S  0.07829229  0.19034538  0.43623569    -0.33200
H385        H  0.09364516  0.15930057  0.44946415     0.28200
H386        H  0.18770462  0.31549559  0.38621987     0.28200
H387        H  0.18790349  0.23116915  0.45033576     0.18800
H388        H  0.09038750  0.24734897  0.39015280     0.18800
C389        C  0.87350161  0.28293361  0.19726800    -0.07100
C390        C  0.84902058  0.28471250  0.17522195    -0.18200
C391        C  0.84750101  0.26063098  0.14865016     0.10100
C392        C  0.87098691  0.23377461  0.14374906    -0.07000
C393        C  0.89549326  0.23191821  0.16538216    -0.18200
C394        C  0.89734517  0.25612761  0.19181391     0.10200
S395        S  0.81468570  0.26336613  0.12198442    -0.33200
S396        S  0.93090359  0.25205182  0.21741176    -0.33200
H397        H  0.94203591  0.21788146  0.20509999     0.28200
H398        H  0.79838225  0.29115484  0.13884116     0.28200
H399        H  0.83047706  0.30443663  0.17923652     0.18800
H400        H  0.91387258  0.21207363  0.16087319     0.18800
C401        C  0.87415202  0.21450877  0.44849119    -0.07100
C402        C  0.84981819  0.21170474  0.42630750    -0.18200
C403        C  0.84796481  0.23583389  0.39980834     0.10100
C404        C  0.87113836  0.26358912  0.39486678    -0.07000
C405        C  0.89555233  0.26636671  0.41661041    -0.18200
C406        C  0.89762230  0.24228400  0.44310704     0.10200
S407        S  0.81480066  0.23232401  0.37365208    -0.33200
S408        S  0.93077423  0.24803889  0.46914400    -0.33200
H409        H  0.94371840  0.28014235  0.45452107     0.28200
H410        H  0.80091299  0.20067755  0.38808572     0.28200
H411        H  0.83145972  0.19138868  0.43035100     0.18800
H412        H  0.91360388  0.28702062  0.41223421     0.18800
C413        C  0.97181280  0.32931516  0.31184844    -0.07100
C414        C  0.98747147  0.29718168  0.32245753    -0.18200
C415        C  0.01992073  0.29601750  0.32337994     0.10100
C416        C  0.03731872  0.32779949  0.31332165    -0.07000
C417        C  0.02159428  0.35977448  0.30246060    -0.18200
C418        C  0.98930241  0.36066860  0.30105737     0.10200
S419        S  0.03847320  0.25476169  0.33950099    -0.33200
S420        S  0.97207434  0.40203373  0.28382413    -0.33200
H421        H  0.94883528  0.38216855  0.26722593     0.28200
H422        H  0.01158057  0.23278750  0.34374478     0.28200
H423        H  0.97414826  0.27327008  0.33096809     0.18800
H424        H  0.03462638  0.38407761  0.29417193     0.18800
C425        C  0.72488795  0.10346532  0.13946820    -0.07100
C426        C  0.75324173  0.09714186  0.15499183    -0.18200
C427        C  0.78129704  0.09529594  0.13811931     0.10100
C428        C  0.78184217  0.10121037  0.10461656    -0.07000
C429        C  0.75339066  0.10459378  0.08873992    -0.18200
C430        C  0.72507719  0.10535671  0.10545344     0.10200
S431        S  0.81548850  0.08512154  0.16101377    -0.33200
S432        S  0.68987637  0.10962910  0.08243435    -0.33200
H433        H  0.70313925  0.10586404  0.05188469     0.28200
H434        H  0.82920841  0.06310436  0.13695168     0.28200
H435        H  0.75382900  0.09441677  0.18076582     0.18800
H436        H  0.75339724  0.10858593  0.06310194     0.18800
C437        C  0.78061389  0.26121658  0.26687441    -0.07100
C438        C  0.78413714  0.24349255  0.23715979    -0.18200
C439        C  0.75840903  0.23105006  0.21989333     0.10100
C440        C  0.72856199  0.23630011  0.23279492    -0.07000
C441        C  0.72507467  0.25409920  0.26247575    -0.18200
C442        C  0.75073893  0.26620948  0.27981232     0.10200
S443        S  0.76381812  0.20995480  0.18091758    -0.33200
S444        S  0.74380734  0.28710233  0.31851275    -0.33200
H445        H  0.77283197  0.27840330  0.33145236     0.28200
H446        H  0.79631835  0.20883530  0.18169896     0.28200
H447        H  0.80698920  0.24123779  0.22670806     0.18800
H448        H  0.70229371  0.25677857  0.27308015     0.18800
C449        C  0.47126480  0.17094018  0.18264902    -0.07100
C450        C  0.48648515  0.19087412  0.20698239    -0.18200
C451        C  0.51859305  0.18904649  0.21053250     0.10100
C452        C  0.53633411  0.16799499  0.18853621    -0.07000
C453        C  0.52107660  0.14807582  0.16418122    -0.18200
C454        C  0.48896776  0.14949490  0.16083612     0.10200
S455        S  0.53503871  0.21184419  0.24500818    -0.33200
S456        S  0.47235028  0.12465153  0.12732168    -0.33200
H457        H  0.44992625  0.15203652  0.12086350     0.28200
H458        H  0.55671684  0.18340838  0.25096206     0.28200
H459        H  0.47312361  0.20662991  0.22429796     0.18800
H460        H  0.53436991  0.13217342  0.14690665     0.18800
C461        C  0.28241962  0.10287513  0.13868952    -0.07100
C462        C  0.25409079  0.10331900  0.15521735    -0.18200
C463        C  0.22569136  0.10254541  0.13918041     0.10100
C464        C  0.22496638  0.10217647  0.10524893    -0.07000
C465        C  0.25324707  0.09887732  0.08879639    -0.18200
C466        C  0.28179345  0.09902866  0.10492876     0.10200
S467        S  0.19149635  0.10268892  0.16390827    -0.33200
S468        S  0.31694602  0.09461155  0.08173206    -0.33200
H469        H  0.30306349  0.09075159  0.05152504     0.28200
H470        H  0.17564341  0.07593468  0.14513387     0.28200
H471        H  0.25390203  0.10559861  0.18104651     0.18800
H472        H  0.25312810  0.09789249  0.06295198     0.18800
C473        C  0.27937701  0.23429351  0.23145253    -0.07100
C474        C  0.25698077  0.21160848  0.24691846    -0.18200
C475        C  0.23266791  0.22727505  0.26416855     0.10100
C476        C  0.23004635  0.26667223  0.26557611    -0.07000
C477        C  0.25262414  0.28932792  0.25037462    -0.18200
C478        C  0.27694821  0.27367449  0.23317611     0.10200
S479        S  0.20684640  0.19552094  0.28493043    -0.33200
S480        S  0.30301693  0.30549325  0.21281765    -0.33200
H481        H  0.30645773  0.28258247  0.18560930     0.28200
H482        H  0.20306641  0.21898991  0.31174418     0.28200
H483        H  0.25902829  0.18122907  0.24671729     0.18800
H484        H  0.25066623  0.31971359  0.25060825     0.18800
C485        C  0.37394431  0.26207558  0.35473067    -0.07100
C486        C  0.34817380  0.23850206  0.34990296    -0.18200
C487        C  0.34644994  0.21376389  0.32385057     0.10100
C488        C  0.37102052  0.21259796  0.30127359    -0.07000
C489        C  0.39735959  0.23533107  0.30707934    -0.18200
C490        C  0.39920306  0.25950282  0.33349246     0.10200
S491        S  0.31178043  0.18553128  0.32087644    -0.33200
S492        S  0.43478776  0.28543234  0.33918494    -0.33200
H493        H  0.43507349  0.28179626  0.37264483     0.28200
H494        H  0.32807396  0.15169881  0.31694394     0.28200
H495        H  0.32899506  0.23950701  0.36660760     0.18800
H496        H  0.41675866  0.23477378  0.29066663     0.18800
C497        C  0.37261659  0.28811711  0.04863996    -0.07100
C498        C  0.38866492  0.25375753  0.04732125    -0.18200
C499        C  0.38854460  0.22822490  0.07280210     0.10100
C500        C  0.37255122  0.23700786  0.10136604    -0.07000
C501        C  0.35685351  0.27173923  0.10284429    -0.18200
C502        C  0.35685277  0.29720422  0.07717100     0.10200
S503        S  0.40955709  0.18523950  0.06693708    -0.33200
S504        S  0.33712881  0.34118218  0.08288784    -0.33200
H505        H  0.35910258  0.36277089  0.06592793     0.28200
H506        H  0.38295953  0.16253161  0.07062126     0.28200
H507        H  0.40062018  0.24574667  0.02560432     0.18800
H508        H  0.34459272  0.27955420  0.12442515     0.18800
C509        C  0.23039414  0.23351319  0.01270454    -0.07100
C510        C  0.24968681  0.21293277  0.99201332    -0.18200
C511        C  0.27705342  0.22596293  0.48164026     0.10100
C512        C  0.28182507  0.26491096  0.48512970    -0.07000
C513        C  0.26214244  0.28577655  0.50518345    -0.18200
C514        C  0.23579180  0.27214508  0.01731975     0.10200
S515        S  0.30004749  0.19699831  0.45552336    -0.33200
S516        S  0.21351844  0.30043805  0.04461887    -0.33200
H517        H  0.20815662  0.27145169  0.06689723     0.28200
H518        H  0.30487316  0.22495966  0.43220120     0.28200
H519        H  0.24505803  0.18335228  0.98757736     0.18800
H520        H  0.26633349  0.31558002  0.50890612     0.18800
C521        C  0.22592136  0.39813768  0.35763280    -0.07100
C522        C  0.25426184  0.40166538  0.34122462    -0.18200
C523        C  0.28281392  0.40134405  0.35737204     0.10100
C524        C  0.28343809  0.39657375  0.39102248    -0.07000
C525        C  0.25512320  0.39593014  0.40758432    -0.18200
C526        C  0.22670299  0.39737582  0.39158088     0.10200
S527        S  0.31803039  0.40719559  0.33442810    -0.33200
S528        S  0.19255016  0.39793401  0.41635787    -0.33200
H529        H  0.17747485  0.42512398  0.39769446     0.28200
H530        H  0.30420471  0.41179607  0.30430166     0.28200
H531        H  0.25416516  0.40318560  0.31540217     0.18800
H532        H  0.25495888  0.39320175  0.43337835     0.18800
C533        C  0.72727896  0.26200578  0.48752060    -0.07100
C534        C  0.75675332  0.27385161  0.47733475    -0.18200
C535        C  0.78398545  0.26573552  0.99342205     0.10100
C536        C  0.78159064  0.23754518  0.01709983    -0.07000
C537        C  0.75210846  0.22498342  0.02672424    -0.18200
C538        C  0.72482544  0.23628465  0.51317019     0.10200
S539        S  0.81996573  0.28717665  0.98114145    -0.33200
S540        S  0.68852230  0.21920336  0.52885268    -0.33200
H541        H  0.67865234  0.20493041  0.49916667     0.28200
H542        H  0.82836459  0.29719178  0.01251103     0.28200
H543        H  0.75900503  0.29374806  0.45782562     0.18800
H544        H  0.74987865  0.20364799  0.04512981     0.18800
C545        C  0.72927838  0.39573085  0.39772161    -0.07100
C546        C  0.72753015  0.40357776  0.36479595    -0.18200
C547        C  0.75393581  0.40446434  0.34518035     0.10100
C548        C  0.78335637  0.39616404  0.35826452    -0.07000
C549        C  0.78524142  0.39080572  0.39159360    -0.18200
C550        C  0.75890730  0.39027541  0.41132558     0.10200
S551        S  0.74792541  0.41555914  0.30367965    -0.33200
S552        S  0.76391931  0.37979304  0.45332522    -0.33200
H553        H  0.79517034  0.36924025  0.45195956     0.28200
H554        H  0.77219928  0.44217981  0.30271554     0.28200
H555        H  0.70517519  0.40846554  0.35397691     0.18800
H556        H  0.80750049  0.38534111  0.40229334     0.18800
C557        C  0.64140604  0.26426801  0.35795797    -0.07100
C558        C  0.62224695  0.27225386  0.33200216    -0.18200
C559        C  0.62173123  0.24949806  0.30458453     0.10100
C560        C  0.64034391  0.21656414  0.30308898    -0.07000
C561        C  0.66027991  0.20922892  0.32876616    -0.18200
C562        C  0.66132263  0.23276222  0.35588625     0.10200
S563        S  0.59882176  0.26549064  0.27114148    -0.33200
S564        S  0.68955343  0.22334650  0.38666843    -0.33200
H565        H  0.70246225  0.19106999  0.37267663     0.28200
H566        H  0.58256256  0.29402485  0.28711430     0.28200
H567        H  0.60749435  0.29667550  0.33325457     0.18800
H568        H  0.67544977  0.18520767  0.32735296     0.18800
C569        C  0.63258002  0.29002440  0.05664872    -0.07100
C570        C  0.61114132  0.25985784  0.05802890    -0.18200
C571        C  0.61020720  0.23475995  0.08383332     0.10100
C572        C  0.63191351  0.23857408  0.10880264    -0.07000
C573        C  0.65241137  0.26958742  0.10818128    -0.18200
C574        C  0.65251822  0.29560837  0.08304886     0.10200
S575        S  0.58000516  0.19949312  0.08385825    -0.33200
S576        S  0.67835441  0.33541711  0.08672698    -0.33200
H577        H  0.65693546  0.36126435  0.07449858     0.28200
H578        H  0.57265735  0.20401991  0.11641739     0.28200
H579        H  0.59511220  0.25515705  0.03854382     0.18800
H580        H  0.66851023  0.27387367  0.12769039     0.18800
C581        C  0.47244706  0.33057807  0.43325793    -0.07100
C582        C  0.48754821  0.31059484  0.45747290    -0.18200
C583        C  0.51979328  0.31090644  0.45985976     0.10100
C584        C  0.53767287  0.33061673  0.43689630    -0.07000
C585        C  0.52255168  0.35031774  0.41249850    -0.18200
C586        C  0.49021104  0.35043000  0.41031621     0.10200
S587        S  0.53538170  0.28284526  0.98831548    -0.33200
S588        S  0.47211226  0.37434795  0.37719501    -0.33200
H589        H  0.49942990  0.38499758  0.36117072     0.28200
H590        H  0.55601725  0.31169356  0.99741242     0.28200
H591        H  0.47406856  0.29574331  0.47541149     0.18800
H592        H  0.53622348  0.36513480  0.39474206     0.18800
C593        C  0.12855801  0.53575092  0.23170104    -0.07100
C594        C  0.12651422  0.53273688  0.26528170    -0.18200
C595        C  0.12618227  0.49775627  0.28096836     0.10100
C596        C  0.12866768  0.46410618  0.26299911    -0.07000
C597        C  0.12836840  0.46713281  0.22934525    -0.18200
C598        C  0.12804456  0.50204584  0.21366554     0.10200
S599        S  0.12480928  0.49858860  0.32395335    -0.33200
S600        S  0.12977011  0.50121534  0.17068602    -0.33200
H601        H  0.10294308  0.52300338  0.16731402     0.28200
H602        H  0.09921522  0.47392800  0.32549682     0.28200
H603        H  0.12616815  0.55805649  0.27972878     0.18800
H604        H  0.12951946  0.44192671  0.21481232     0.18800
C605        C  0.87684460  0.53523755  0.23407192    -0.07100
C606        C  0.87882124  0.53183135  0.26760861    -0.18200
C607        C  0.87963396  0.49660097  0.28292579     0.10100
C608        C  0.87927644  0.46332229  0.26429809    -0.07000
C609        C  0.88030646  0.46692265  0.23073128    -0.18200
C610        C  0.87846458  0.50197919  0.21553780     0.10200
S611        S  0.87871182  0.49517974  0.32613981    -0.33200
S612        S  0.87539420  0.50151440  0.17260992    -0.33200
H613        H  0.84710839  0.52085735  0.17250174     0.28200
H614        H  0.87841022  0.53424428  0.33153904     0.28200
H615        H  0.87830523  0.55704364  0.28210459     0.18800
H616        H  0.88051362  0.44190110  0.21591226     0.18800
C617        C  0.97006854  0.66757206  0.18666041    -0.07100
C618        C  0.98603627  0.70189488  0.18277299    -0.18200
C619        C  0.01839098  0.70366432  0.18146260     0.10100
C620        C  0.03589490  0.67024879  0.18450643    -0.07000
C621        C  0.01990099  0.63605956  0.18921923    -0.18200
C622        C  0.98757051  0.63438305  0.19090604     0.10200
S623        S  0.03534438  0.74943204  0.17438181    -0.33200
S624        S  0.97052395  0.58915681  0.20011489    -0.33200
H625        H  0.94911882  0.60366483  0.22222389     0.28200
H626        H  0.05516907  0.73689726  0.14999377     0.28200
H627        H  0.97319322  0.72768103  0.17960797     0.18800
H628        H  0.03272857  0.61026693  0.19243822     0.18800
C629        C  0.88405176  0.96558126  0.48423839    -0.07100
C630        C  0.89047438  0.96857535  0.01452503    -0.18200
C631        C  0.88978452  0.00360764  0.02996555     0.10100
C632        C  0.88400295  0.03655673  0.01200915    -0.07000
C633        C  0.88519648  0.03411783  0.48239301    -0.18200
C634        C  0.88608810  0.99937782  0.46646640     0.10200
S635        S  0.89451400  0.00350763  0.07270221    -0.33200
S636        S  0.88766936  0.00063069  0.42348459    -0.33200
H637        H  0.91262933  0.97551787  0.42179597     0.28200
H638        H  0.91742722  0.03187525  0.07214739     0.28200
H639        H  0.89290059  0.94353225  0.02905119     0.18800
H640        H  0.88490798  0.05951635  0.46807736     0.18800
C641        C  0.86925240  0.76835652  0.35200554    -0.07100
C642        C  0.89627792  0.76345063  0.33410163    -0.18200
C643        C  0.89781126  0.73655279  0.30969160     0.10100
C644        C  0.87107047  0.71509203  0.30149881    -0.07000
C645        C  0.84412088  0.71984890  0.31990763    -0.18200
C646        C  0.84298755  0.74591947  0.34498226     0.10200
S647        S  0.93510035  0.73018112  0.29114093    -0.33200
S648        S  0.80704097  0.74982901  0.36664593    -0.33200
H649        H  0.81029078  0.78831706  0.37393950     0.28200
H650        H  0.93191121  0.69085356  0.28837628     0.28200
H651        H  0.91692372  0.77932934  0.34031736     0.18800
H652        H  0.82324786  0.70430718  0.31397671     0.18800
C653        C  0.87484742  0.78616964  0.05063719    -0.07100
C654        C  0.89168191  0.75233408  0.04991563    -0.18200
C655        C  0.89049415  0.72636384  0.07505188     0.10100
C656        C  0.87246276  0.73417264  0.10246016    -0.07000
C657        C  0.85597440  0.76827780  0.10334742    -0.18200
C658        C  0.85725352  0.79430360  0.07825258     0.10200
S659        S  0.91299836  0.68428518  0.07055097    -0.33200
S660        S  0.83662562  0.83771920  0.08369540    -0.33200
H661        H  0.85979170  0.86022496  0.06948804     0.28200
H662        H  0.88684567  0.66051174  0.07227142     0.28200
H663        H  0.90512958  0.74508683  0.02895596     0.18800
H664        H  0.84220456  0.77526715  0.12415172     0.18800
C665        C  0.12564287  0.96568165  0.47971316    -0.07100
C666        C  0.12289909  0.96753194  0.01281383    -0.18200
C667        C  0.12286102  0.00265216  0.02847975     0.10100
C668        C  0.12777805  0.03591821  0.01049420    -0.07000
C669        C  0.12708461  0.03399241  0.47787496    -0.18200
C670        C  0.12797651  0.99930558  0.46188307     0.10200
S671        S  0.11826522  0.00375241  0.07143788    -0.33200
S672        S  0.13542874  0.99895674  0.41930590    -0.33200
H673        H  0.13404849  0.03804168  0.41428476     0.28200
H674        H  0.11487753  0.96475431  0.07620650     0.28200
H675        H  0.12035674  0.94212746  0.02686658     0.18800
H676        H  0.13034710  0.05940352  0.46400231     0.18800
C677        C  0.14053981  0.76799377  0.34903012    -0.07100
C678        C  0.11273013  0.75389318  0.33660106    -0.18200
C679        C  0.11247023  0.72718885  0.31196225     0.10100
C680        C  0.14073960  0.71460020  0.29862817    -0.07000
C681        C  0.16864239  0.72854593  0.31147107    -0.18200
C682        C  0.16882050  0.75510914  0.33632433     0.10200
S683        S  0.07521377  0.70953834  0.29935952    -0.33200
S684        S  0.20581044  0.77249055  0.35007052    -0.33200
H685        H  0.19534385  0.80796264  0.36011078     0.28200
H686        H  0.08568823  0.67311824  0.29210809     0.28200
H687        H  0.09098176  0.76277122  0.34698974     0.18800
H688        H  0.19050102  0.72018169  0.30103364     0.18800
C689        C  0.13230340  0.78644199  0.04768194    -0.07100
C690        C  0.11205488  0.75506634  0.04865074    -0.18200
C691        C  0.11110920  0.73041811  0.07477906     0.10100
C692        C  0.13161426  0.73608053  0.10063267    -0.07000
C693        C  0.15106279  0.76810829  0.10014983    -0.18200
C694        C  0.15112364  0.79356751  0.07465972     0.10200
S695        S  0.08267238  0.69306675  0.07366347    -0.33200
S696        S  0.17541039  0.83475208  0.07872315    -0.33200
H697        H  0.15350002  0.85932406  0.06551213     0.28200
H698        H  0.07303059  0.69806115  0.10548321     0.28200
H699        H  0.09700491  0.74906260  0.02858724     0.18800
H700        H  0.16638132  0.77374471  0.12008456     0.18800
C701        C  0.03782908  0.82860990  0.43037805    -0.07100
C702        C  0.02246293  0.86288643  0.43519455    -0.18200
C703        C  0.99013635  0.86509232  0.43644285     0.10100
C704        C  0.97200441  0.83199535  0.43230502    -0.07000
C705        C  0.98729710  0.79750936  0.42808771    -0.18200
C706        C  0.01979228  0.79531854  0.42710379     0.10200
S707        S  0.97297565  0.91042673  0.44482136    -0.33200
S708        S  0.03736151  0.74999568  0.42020861    -0.33200
H709        H  0.01013349  0.72814397  0.42175052     0.28200
H710        H  0.00040898  0.93193437  0.44553556     0.28200
H711        H  0.03599408  0.88833986  0.43850310     0.18800
H712        H  0.97364571  0.77213202  0.42483543     0.18800
C713        C  0.38167208  0.46491104  0.48148068    -0.07100
C714        C  0.38306948  0.46890592  0.01473022    -0.18200
C715        C  0.38223088  0.50374308  0.03027448     0.10100
C716        C  0.38330700  0.53723208  0.01210797    -0.07000
C717        C  0.38098529  0.53314446  0.47761514    -0.18200
C718        C  0.37942155  0.49787250  0.46283887     0.10200
S719        S  0.37626815  0.50292718  0.07290272    -0.33200
S720        S  0.37114740  0.49733636  0.42064988    -0.33200
H721        H  0.34474557  0.47422480  0.42403950     0.28200
H722        H  0.34875803  0.52376470  0.07134411     0.28200
H723        H  0.38115490  0.44377418  0.02928756     0.18800
H724        H  0.37799775  0.55773566  0.46267282     0.18800
C725        C  0.22987380  0.77054343  0.48199768    -0.07100
C726        C  0.23249801  0.73174833  0.47759440    -0.18200
C727        C  0.25699690  0.71192249  0.49102045     0.10100
C728        C  0.27800552  0.72952168  0.01233933    -0.07000
C729        C  0.27359244  0.76758841  0.01886382    -0.18200
C730        C  0.24885185  0.78683968  0.00545979     0.10200
S731        S  0.26037374  0.66225256  0.48190579    -0.33200
S732        S  0.24288386  0.83539428  0.01692724    -0.33200
H733        H  0.27100864  0.84073950  0.03320003     0.28200
H734        H  0.23498422  0.65932797  0.46107673     0.28200
H735        H  0.21551689  0.71712752  0.46309939     0.18800
H736        H  0.28939135  0.78202994  0.03484023     0.18800
C737        C  0.28290911  0.60114203  0.10247149    -0.07100
C738        C  0.25521693  0.60692475  0.08573776    -0.18200
C739        C  0.22635538  0.60822707  0.10136028     0.10100
C740        C  0.22473321  0.60357537  0.13514121    -0.07000
C741        C  0.25236341  0.59519738  0.15143734    -0.18200
C742        C  0.28103873  0.59357162  0.13563067     0.10200
S743        S  0.19239938  0.61700186  0.07731655    -0.33200
S744        S  0.31430212  0.58149140  0.15927920    -0.33200
H745        H  0.32915023  0.56152463  0.13465128     0.28200
H746        H  0.20730898  0.62092943  0.04757997     0.28200
H747        H  0.25637390  0.61243404  0.06032776     0.18800
H748        H  0.25191003  0.59070125  0.17703645     0.18800
C749        C  0.62530657  0.46251323  0.48997286    -0.07100
C750        C  0.62080745  0.49388635  0.47018239    -0.18200
C751        C  0.61874363  0.53038668  0.48291560     0.10100
C752        C  0.62198756  0.53834319  0.01512838    -0.07000
C753        C  0.62195353  0.50681246  0.03523353    -0.18200
C754        C  0.62419294  0.46824210  0.52367445     0.10200
S755        S  0.61068292  0.56801072  0.45530128    -0.33200
S756        S  0.62306410  0.43030285  0.55229129    -0.33200
H757        H  0.60464965  0.40650320  0.53313973     0.28200
H758        H  0.59529779  0.59248410  0.97537612     0.28200
H759        H  0.61994482  0.49026349  0.44448796     0.18800
H760        H  0.62320322  0.51060374  0.06090001     0.18800
C761        C  0.72873888  0.73468082  0.01442138    -0.07100
C762        C  0.74985134  0.71330615  0.99647242    -0.18200
C763        C  0.77506267  0.73003320  0.98117287     0.10100
C764        C  0.77865838  0.76867015  0.48094456    -0.07000
C765        C  0.75629685  0.79036459  0.49701737    -0.18200
C766        C  0.73170598  0.77365359  0.51338819     0.10200
S767        S  0.79950825  0.70006325  0.95747810    -0.33200
S768        S  0.70610389  0.80417103  0.53525793    -0.33200
H769        H  0.70256121  0.77968701  0.56146900     0.28200
H770        H  0.80546370  0.72716661  0.93384365     0.28200
H771        H  0.74613312  0.68331726  0.99337647     0.18800
H772        H  0.75866935  0.82072227  0.49817347     0.18800
C773        C  0.72184677  0.60447053  0.10861343    -0.07100
C774        C  0.75014453  0.60094177  0.09227401    -0.18200
C775        C  0.77845105  0.59949078  0.10849469     0.10100
C776        C  0.77921727  0.60281871  0.14226942    -0.07000
C777        C  0.75083675  0.60341432  0.15877177    -0.18200
C778        C  0.72232330  0.60395156  0.14257780     0.10200
S779        S  0.81258964  0.59339668  0.08430809    -0.33200
S780        S  0.68709698  0.60413604  0.16603069    -0.33200
H781        H  0.70086468  0.60496706  0.19644870     0.28200
H782        H  0.82684741  0.56879428  0.10602342     0.28200
H783        H  0.75046771  0.60033131  0.06638833     0.12400
H784        H  0.75097789  0.60512811  0.18458542     0.18800
C785        C  0.53574923  0.67688244  0.06622809    -0.07100
C786        C  0.52021725  0.70268969  0.04669902    -0.18200
C787        C  0.48789250  0.70292383  0.04498533     0.10100
C788        C  0.47044634  0.67715044  0.06363460    -0.07000
C789        C  0.48604273  0.65254529  0.08414132    -0.18200
C790        C  0.51820104  0.65246247  0.08605997     0.10200
S791        S  0.47067159  0.73493675  0.01694584    -0.33200
S792        S  0.53494348  0.62115048  0.11513107    -0.33200
H793        H  0.55909175  0.64569596  0.12391220     0.28200
H794        H  0.45070509  0.70750799  0.00399349     0.28200
H795        H  0.53334544  0.72166495  0.03148802     0.18800
H796        H  0.47300623  0.63344039  0.09932953     0.18800
C797        C  0.62557475  0.96318229  0.26405454    -0.07100
C798        C  0.62452213  0.99510277  0.28372635    -0.18200
C799        C  0.62420339  0.03150136  0.27073898     0.10100
C800        C  0.62674349  0.03669379  0.23712671    -0.07000
C801        C  0.62448138  0.00479724  0.21745254    -0.18200
C802        C  0.62300565  0.96841004  0.23045784     0.10200
S803        S  0.62055151  0.07000458  0.29858052    -0.33200
S804        S  0.61796679  0.92994662  0.20270400    -0.33200
H805        H  0.60047645  0.90750601  0.22389477     0.28200
H806        H  0.60307204  0.09256097  0.27781276     0.28200
H807        H  0.62512840  0.99186071  0.30946674     0.18800
H808        H  0.62496148  0.00801613  0.19170342     0.18800
C809        C  0.77913897  0.73869285  0.22991096    -0.07100
C810        C  0.78398232  0.76164748  0.25671114    -0.18200
C811        C  0.75916666  0.77527569  0.27446297     0.10100
C812        C  0.72856678  0.76619229  0.26510078    -0.07000
C813        C  0.72375070  0.74408026  0.23771957    -0.18200
C814        C  0.74861400  0.73081582  0.21976714     0.10200
S815        S  0.76824758  0.80337589  0.30919052    -0.33200
S816        S  0.73988648  0.70503053  0.18364947    -0.33200
H817        H  0.76754107  0.71461594  0.16773512     0.28200
H818        H  0.74328244  0.78986553  0.32763501     0.28200
H819        H  0.80728747  0.76715244  0.26511042     0.18800
H820        H  0.70045366  0.73865896  0.22926366     0.18800
C821        C  0.72446920  0.89729093  0.35968288    -0.07100
C822        C  0.75254718  0.90285285  0.34315255    -0.18200
C823        C  0.78104918  0.90486961  0.35902999     0.10100
C824        C  0.78233464  0.90034332  0.39265222    -0.07000
C825        C  0.75422996  0.89742273  0.40948053    -0.18200
C826        C  0.72548268  0.89602224  0.39366243     0.10200
S827        S  0.81483042  0.91319130  0.33463693    -0.33200
S828        S  0.69077772  0.89172772  0.41768035    -0.33200
H829        H  0.70490424  0.89394920  0.44788010     0.28200
H830        H  0.82962539  0.93644833  0.35726489     0.28200
H831        H  0.75257879  0.90472035  0.31731069     0.18800
H832        H  0.75485089  0.89427105  0.43519396     0.18800
C833        C  0.63536973  0.76422566  0.39450192    -0.07100
C834        C  0.60761796  0.75170094  0.40839238    -0.18200
C835        C  0.60733287  0.72518853  0.43317659     0.10100
C836        C  0.63560207  0.71177663  0.44560700    -0.07000
C837        C  0.66344076  0.72416598  0.43145377    -0.18200
C838        C  0.66358130  0.75002882  0.40602648     0.10200
S839        S  0.57009676  0.70883760  0.44722093    -0.33200
S840        S  0.69988697  0.76639584  0.38941284    -0.33200
H841        H  0.71929580  0.74715418  0.41072192     0.28200
H842        H  0.58014400  0.67248797  0.45528465     0.28200
H843        H  0.58584870  0.76177849  0.39933453     0.18800
H844        H  0.68523043  0.71487040  0.44128494     0.18800
C845        C  0.63585138  0.79078010  0.19481961    -0.07100
C846        C  0.60998571  0.76720486  0.18933871    -0.18200
C847        C  0.60839223  0.74309985  0.16293619     0.10100
C848        C  0.63361719  0.74110940  0.14159678    -0.07000
C849        C  0.65868691  0.76598309  0.14588349    -0.18200
C850        C  0.65987265  0.79112237  0.17165351     0.10200
S851        S  0.57300734  0.71685599  0.15728653    -0.33200
S852        S  0.69290295  0.82227691  0.17326815    -0.33200
H853        H  0.67494313  0.85441867  0.17920014     0.28200
H854        H  0.57225912  0.72194228  0.12397203     0.28200
H855        H  0.59078607  0.76702254  0.20600993     0.18800
H856        H  0.67766657  0.76584823  0.12891588     0.18800
C857        C  0.38308756  0.03948693  0.23416782    -0.07100
C858        C  0.38880760  0.00825094  0.21454676    -0.18200
C859        C  0.39102416  0.97191731  0.22733436     0.10100
C860        C  0.38613446  0.96601910  0.26053613    -0.07000
C861        C  0.38420150  0.99753497  0.28051567    -0.18200
C862        C  0.38315462  0.03413934  0.26793995     0.10200
S863        S  0.39955419  0.93433076  0.19974828    -0.33200
S864        S  0.38133666  0.07318465  0.29576100    -0.33200
H865        H  0.38359703  0.05223244  0.32415779     0.28200
H866        H  0.41506901  0.91207229  0.22226882     0.28200
H867        H  0.39034952  0.01180234  0.18887340     0.18800
H868        H  0.38151592  0.99336719  0.30599501     0.18800
C869        C  0.37372173  0.71409604  0.44180077    -0.07100
C870        C  0.39569159  0.74353819  0.43903328    -0.18200
C871        C  0.39619954  0.76801170  0.41277556     0.10100
C872        C  0.37340136  0.76456528  0.38876581    -0.07000
C873        C  0.35234466  0.73419194  0.39068059    -0.18200
C874        C  0.35271119  0.70861873  0.41621999     0.10200
S875        S  0.42747440  0.80179318  0.41082524    -0.33200
S876        S  0.32610232  0.66942326  0.41402232    -0.33200
H877        H  0.34796264  0.64298008  0.42441267     0.28200
H878        H  0.43356502  0.79560365  0.37820395     0.28200
H879        H  0.41267661  0.74799454  0.45767793     0.18800
H880        H  0.33547817  0.73001165  0.37185938     0.18800
C881        C  0.37040065  0.73515125  0.14256803    -0.07100
C882        C  0.39864401  0.74573525  0.15643610    -0.18200
C883        C  0.39999765  0.77320789  0.18043657     0.10100
C884        C  0.37233562  0.78978525  0.19167754    -0.07000
C885        C  0.34417929  0.77954409  0.17718931    -0.18200
C886        C  0.34291988  0.75242250  0.15301587     0.10200
S887        S  0.43778186  0.78678635  0.19481709    -0.33200
S888        S  0.30536633  0.73999209  0.13726533    -0.33200
H889        H  0.31267008  0.70255313  0.12955782     0.28200
H890        H  0.42989298  0.82442793  0.20113117     0.28200
H891        H  0.41994718  0.73367557  0.14754505     0.18800
H892        H  0.32265309  0.79116717  0.18591852     0.18800
C893        C  0.47077960  0.82969243  0.30754530    -0.07100
C894        C  0.48581772  0.79870217  0.32102009    -0.18200
C895        C  0.51807881  0.79765379  0.32321252     0.10100
C896        C  0.53607070  0.82786717  0.31104521    -0.07000
C897        C  0.52097936  0.85835894  0.29673799    -0.18200
C898        C  0.48872840  0.85933052  0.29441414     0.10200
S899        S  0.53463066  0.75864941  0.34430271    -0.33200
S900        S  0.47199858  0.89823882  0.27307091    -0.33200
H901        H  0.44802714  0.87671874  0.25932476     0.28200
H902        H  0.55586576  0.78184816  0.36036706     0.28200
H903        H  0.47229632  0.77589425  0.33129083     0.18800
H904        H  0.53447110  0.88131763  0.28666343     0.18800
C905        C  0.23028415  0.73511407  0.22470443    -0.07100
C906        C  0.25113532  0.71408988  0.24317664    -0.18200
C907        C  0.27515303  0.73134538  0.25984662     0.10100
C908        C  0.27906909  0.77056337  0.25753183    -0.07000
C909        C  0.25860187  0.79155991  0.23848399    -0.18200
C910        C  0.23448769  0.77422312  0.22182360     0.10200
S911        S  0.29871846  0.70200327  0.28495192    -0.33200
S912        S  0.21095557  0.80308753  0.19628263    -0.33200
H913        H  0.20552209  0.77493715  0.17324880     0.28200
H914        H  0.30177312  0.72873384  0.30960576     0.28200
H915        H  0.24780619  0.68401578  0.24606850     0.18800
H916        H  0.26202729  0.82161670  0.23560382     0.18800
C917        C  0.28245883  0.90117329  0.35006953    -0.07100
C918        C  0.28357173  0.90757909  0.38325547    -0.18200
C919        C  0.25659437  0.90817691  0.40229898     0.10100
C920        C  0.22726643  0.90125805  0.38803717    -0.07000
C921        C  0.22617747  0.89743635  0.35453475    -0.18200
C922        C  0.25295191  0.89772019  0.33558949     0.10200
S923        S  0.26078002  0.91621275  0.44476518    -0.33200
S924        S  0.24753328  0.89012188  0.29340026    -0.33200
H925        H  0.26241891  0.92408191  0.28500087     0.28200
H926        H  0.29250818  0.92523253  0.44462124     0.28200
H927        H  0.30592328  0.91089059  0.39454608     0.18800
H928        H  0.20417809  0.89280758  0.34277001     0.18800
Fe929      Fe  0.38132459  0.87045075  0.83181613     1.65800
Fe930      Fe  0.33459748  0.86355422  0.76865687     1.73200
Fe931      Fe  0.37764623  0.78987620  0.78948274     1.54400
O932        O  0.42335022  0.80063108  0.80292462    -0.82600
O933        O  0.30356670  0.82339457  0.78127986    -0.80900
O934        O  0.42587698  0.86137667  0.81642710    -0.85100
O935        O  0.38333022  0.82355399  0.86266293    -0.80000
O936        O  0.39039047  0.80189767  0.74359327    -0.81800
O937        O  0.31505476  0.89744906  0.80420108    -0.84500
C938        C  0.37467271  0.78907972  0.86108913     0.96300
C939        C  0.43871441  0.83067684  0.80857165     1.03700
O940        O  0.36489065  0.84128036  0.79670697    -1.13500
O941        O  0.36515038  0.90469762  0.75580869    -0.75900
O942        O  0.38178463  0.92060731  0.80442114    -0.79400
O943        O  0.36603834  0.77416042  0.83502259    -0.80100
C944        C  0.37842562  0.92767426  0.77456067     0.95200
O945        O  0.33715668  0.87989377  0.84919524    -0.78000
O946        O  0.34790807  0.83131990  0.72870947    -0.83200
C947        C  0.30689863  0.78924591  0.77380384     0.97800
C948        C  0.37079834  0.81012024  0.72242821     1.03700
O949        O  0.33338415  0.77360243  0.77381435    -0.78900
C950        C  0.31391907  0.89264809  0.83429579     1.02000
Fe951      Fe  0.62960399  0.87070552  0.83596455     1.65800
Fe952      Fe  0.67975307  0.86150803  0.77507608     1.73200
Fe953      Fe  0.63394932  0.78917887  0.79529977     1.54400
O954        O  0.64494508  0.77497728  0.84104970    -0.82600
O955        O  0.66591006  0.82946093  0.73487217    -0.80900
O956        O  0.62645767  0.82450211  0.86772389    -0.85100
O957        O  0.58548890  0.86089594  0.81945030    -0.80000
O958        O  0.67786540  0.77155121  0.78055799    -0.81800
O959        O  0.65168779  0.90390892  0.76099299    -0.84500
C960        C  0.57256740  0.82964734  0.81286567     0.96300
C961        C  0.63635384  0.79067627  0.86670240     1.03700
O962        O  0.64747708  0.84063637  0.80215444    -1.13500
O963        O  0.69960954  0.89458614  0.81127400    -0.75900
O964        O  0.67288798  0.88132968  0.85496960    -0.79400
O965        O  0.58802740  0.79985057  0.80783800    -0.80100
C966        C  0.69766491  0.89244985  0.84163017     0.95200
O967        O  0.63016392  0.91999788  0.80741222    -0.78000
O968        O  0.70907608  0.82043625  0.78837230    -0.83200
C969        C  0.64257162  0.80872247  0.72810310     0.97800
C970        C  0.70480150  0.78643779  0.78092544     1.03700
O971        O  0.62249498  0.80089423  0.74916437    -0.78900
C972        C  0.63609214  0.92648982  0.77785008     1.02000
Fe973      Fe  0.62752123  0.63290616  0.58604697     1.65800
Fe974      Fe  0.67477109  0.63940549  0.52304230     1.73200
Fe975      Fe  0.63153727  0.71311539  0.54362529     1.54400
O976        O  0.58616847  0.70284587  0.55879072    -0.82600
O977        O  0.70537551  0.68042778  0.53473892    -0.80900
O978        O  0.58342673  0.64172957  0.57042944    -0.85100
O979        O  0.62527666  0.68050947  0.61655163    -0.80000
O980        O  0.61767236  0.70080282  0.99727940    -0.81800
O981        O  0.69497073  0.60691360  0.55928303    -0.84500
C982        C  0.63546132  0.71441320  0.61469343     0.96300
C983        C  0.57065784  0.67306637  0.56503338     1.03700
O984        O  0.64424422  0.66169124  0.55085081    -1.13500
O985        O  0.64502318  0.59709706  0.51076205    -0.75900
O986        O  0.62737252  0.58193418  0.55918086    -0.79400
O987        O  0.64462058  0.72869395  0.58858531    -0.80100
C988        C  0.63150147  0.57425671  0.52947199     0.95200
O989        O  0.67115306  0.62388983  0.60374049    -0.78000
O990        O  0.66059905  0.67186740  0.98254958    -0.83200
C991        C  0.70172421  0.71428319  0.52661721     0.97800
C992        C  0.63748326  0.69269833  0.97618201     1.03700
O993        O  0.67518073  0.72963911  0.52655420    -0.78900
C994        C  0.69467540  0.61091658  0.58959621     1.02000
Fe995      Fe  0.38005971  0.63278787  0.58221617     1.65800
Fe996      Fe  0.33418899  0.63940494  0.51887639     1.73200
Fe997      Fe  0.37633897  0.71376388  0.54084486     1.54400
O998        O  0.36317655  0.72780062  0.58624656    -0.82600
O999        O  0.34762290  0.67282041  0.98089708    -0.80900
O1000       O  0.38324669  0.67964730  0.61315453    -0.85100
O1001       O  0.42419909  0.64215004  0.56651063    -0.80000
O1002       O  0.33234503  0.72927943  0.52425690    -0.81800
O1003       O  0.36513279  0.59926179  0.50622354    -0.84500
C1004       C  0.43714630  0.67361927  0.56060874     0.96300
C1005       C  0.37256102  0.71304657  0.61195227     1.03700
O1006       O  0.36395670  0.66201392  0.54726316    -1.13500
O1007       O  0.31443532  0.60505976  0.55432133    -0.75900
O1008       O  0.33596769  0.62400400  0.59952900    -0.79400
O1009       O  0.42183061  0.70357402  0.55542814    -0.80100
C1010       C  0.31305287  0.61052030  0.58441013     0.95200
O1011       O  0.37932375  0.58211448  0.55501673    -0.78000
O1012       O  0.30298378  0.67853687  0.53156580    -0.83200
C1013       C  0.37045706  0.69495109  0.97534232     0.97800
C1014       C  0.30614906  0.71240481  0.52334987     1.03700
O1015       O  0.38931604  0.70339066  0.99733552    -0.78900
C1016       C  0.37634809  0.57507414  0.52509945     1.02000
Fe1017     Fe  0.13166619  0.86871285  0.90853857     1.65800
Fe1018     Fe  0.17622653  0.86056771  0.97303882     1.73200
Fe1019     Fe  0.13325039  0.78733110  0.94925394     1.54400
O1020       O  0.08843788  0.79768694  0.93273861    -0.82600
O1021       O  0.20651411  0.82017386  0.96096328    -0.80900
O1022       O  0.08653234  0.85899679  0.92228310    -0.85100
O1023       O  0.12998816  0.82218742  0.87715596    -0.80000
O1024       O  0.11931981  0.80071611  0.49508471    -0.81800
O1025       O  0.19832293  0.89429688  0.93857471    -0.84500
C1026       C  0.14040561  0.78864336  0.87856553     0.96300
C1027       C  0.07312207  0.82759856  0.92769059     1.03700
O1028       O  0.14656538  0.83907141  0.94370802    -1.13500
O1029       O  0.14665492  0.90249003  0.98534560    -0.75900
O1030       O  0.13143976  0.91867370  0.93647478    -0.79400
O1031       O  0.14845717  0.77340719  0.90455140    -0.80100
C1032       C  0.13517471  0.92622097  0.96622601     0.95200
O1033       O  0.17645199  0.87834533  0.89280003    -0.78000
O1034       O  0.16140186  0.83071259  0.51122327    -0.83200
C1035       C  0.20234102  0.78668606  0.96973746     0.97800
C1036       C  0.13838637  0.80901246  0.51694674     1.03700
O1037       O  0.17595583  0.77054538  0.96802976    -0.78900
C1038       C  0.19972738  0.89040871  0.90835282     1.02000
Fe1039     Fe  0.87952232  0.86917178  0.91085983     1.65800
Fe1040     Fe  0.83563627  0.86279410  0.97624444     1.73200
Fe1041     Fe  0.87747964  0.78889924  0.95338897     1.54400
O1042       O  0.86379258  0.77301558  0.90856121    -0.82600
O1043       O  0.84749823  0.82896765  0.51379162    -0.80900
O1044       O  0.88042492  0.82222243  0.88001112    -0.85100
O1045       O  0.92457431  0.86007809  0.92374960    -0.80000
O1046       O  0.83343979  0.77282477  0.97068196    -0.81800
O1047       O  0.86730183  0.90326725  0.98775206    -0.84500
C1048       C  0.93809904  0.82977267  0.93125921     0.96300
C1049       C  0.87094957  0.78812732  0.88214170     1.03700
O1050       O  0.86450723  0.84019264  0.94667417    -1.13500
O1051       O  0.81487572  0.89732200  0.94183907    -0.75900
O1052       O  0.83486761  0.87857505  0.89583254    -0.79400
O1053       O  0.92302161  0.79971283  0.93805247    -0.80100
C1054       C  0.81288448  0.89291684  0.91168097     0.95200
O1055       O  0.88066076  0.91952916  0.93823052    -0.78000
O1056       O  0.80383595  0.82329742  0.96482923    -0.83200
C1057       C  0.87088521  0.80821692  0.51913987     0.97800
C1058       C  0.80708154  0.78891552  0.97148207     1.03700
O1059       O  0.89058616  0.80223879  0.49745521    -0.78900
C1060       C  0.87843567  0.92700194  0.96814217     1.02000
Fe1061     Fe  0.87795439  0.62955518  0.66091378     1.65800
Fe1062     Fe  0.83201726  0.63877438  0.72495956     1.73200
Fe1063     Fe  0.87672845  0.71122073  0.70195443     1.54400
O1064       O  0.92212219  0.69866215  0.68873532    -0.82600
O1065       O  0.80165080  0.67959942  0.71357953    -0.80900
O1066       O  0.92286948  0.63805899  0.67487730    -0.85100
O1067       O  0.88071246  0.67541606  0.62913510    -0.80000
O1068       O  0.88910914  0.70114068  0.74808171    -0.81800
O1069       O  0.81054811  0.60521479  0.68997893    -0.84500
C1070       C  0.87260781  0.70986643  0.63031932     0.96300
C1071       C  0.93664996  0.66834692  0.68270163     1.03700
O1072       O  0.86253824  0.65988600  0.69594114    -1.13500
O1073       O  0.86159976  0.59705831  0.73724268    -0.75900
O1074       O  0.87762705  0.57981704  0.68892088    -0.79400
O1075       O  0.86525749  0.72552665  0.65638925    -0.80100
C1076       C  0.87390444  0.57314721  0.71877681     0.95200
O1077       O  0.83359654  0.62073749  0.64458694    -0.78000
O1078       O  0.84713253  0.67089138  0.76437673    -0.83200
C1079       C  0.80623336  0.71424605  0.71859785     0.97800
C1080       C  0.87009262  0.69271289  0.76991171     1.03700
O1081       O  0.83309414  0.72935550  0.71711069    -0.78900
C1082       C  0.81017171  0.60843310  0.65963490     1.02000
Fe1083     Fe  0.12836550  0.63182985  0.65864620     1.65800
Fe1084     Fe  0.17729887  0.64027415  0.71996947     1.73200
Fe1085     Fe  0.13208789  0.71237956  0.70086601     1.54400
O1086       O  0.14283712  0.72808062  0.65540172    -0.82600
O1087       O  0.16428377  0.67200144  0.76045361    -0.80900
O1088       O  0.12501547  0.67878859  0.62779774    -0.85100
O1089       O  0.08399795  0.63995805  0.67473027    -0.80000
O1090       O  0.17620976  0.73017619  0.71570595    -0.81800
O1091       O  0.14825934  0.59793508  0.73393150    -0.84500
C1092       C  0.07095539  0.67078523  0.68182260     0.96300
C1093       C  0.13391972  0.71319910  0.62947467     1.03700
O1094       O  0.14540612  0.66135056  0.69322950    -1.13500
O1095       O  0.19674185  0.60727669  0.68369149    -0.75900
O1096       O  0.17198201  0.62380956  0.64000249    -0.79400
O1097       O  0.08637337  0.70059093  0.68805141    -0.80100
C1098       C  0.19621339  0.61211092  0.65353348     0.95200
O1099       O  0.12937206  0.58156708  0.68638673    -0.78000
O1100       O  0.20671107  0.68166407  0.70600141    -0.83200
C1101       C  0.14101405  0.69233560  0.76746671     0.97800
C1102       C  0.20298369  0.71543419  0.71438690     1.03700
O1103       O  0.12066433  0.69975664  0.74684733    -0.78900
C1104       C  0.13420433  0.57456711  0.71606528     1.02000
Fe1105     Fe  0.63158151  0.37154025  0.91615385     1.65800
Fe1106     Fe  0.67648641  0.36238308  0.98086198     1.73200
Fe1107     Fe  0.63109484  0.29055490  0.95835644     1.54400
O1108       O  0.58628782  0.30220800  0.94312945    -0.82600
O1109       O  0.70588480  0.32086894  0.96914555    -0.80900
O1110       O  0.58587380  0.36233271  0.92814725    -0.85100
O1111       O  0.63144793  0.32498917  0.88466811    -0.80000
O1112       O  0.61749222  0.30176015  0.50430604    -0.81800
O1113       O  0.69910304  0.39551148  0.94648055    -0.84500
C1114       C  0.63953315  0.29044621  0.88686907     0.96300
C1115       C  0.57186858  0.33199100  0.93557738     1.03700
O1116       O  0.64596367  0.34164628  0.95169807    -1.13500
O1117       O  0.64779995  0.40510690  0.99298466    -0.75900
O1118       O  0.63000519  0.42104433  0.94485491    -0.79400
O1119       O  0.64408656  0.27467757  0.91353369    -0.80100
C1120       C  0.63383409  0.42781736  0.97480259     0.95200
O1121       O  0.67642601  0.38145376  0.90076204    -0.78000
O1122       O  0.66115405  0.32819253  0.52010465    -0.83200
C1123       C  0.70106152  0.28675309  0.97601974     0.97800
C1124       C  0.63702007  0.30860862  0.52598552     1.03700
O1125       O  0.67404012  0.27218572  0.97534580    -0.78900
C1126       C  0.70009346  0.39215513  0.91624223     1.02000
Fe1127     Fe  0.37923509  0.37125835  0.90921887     1.65800
Fe1128     Fe  0.33264751  0.36306810  0.97264436     1.73200
Fe1129     Fe  0.37714989  0.29099333  0.95172325     1.54400
O1130       O  0.36499694  0.27484448  0.90686915    -0.82600
O1131       O  0.34759546  0.32860851  0.51494079    -0.80900
O1132       O  0.38140963  0.32423398  0.87840999    -0.85100
O1133       O  0.42418365  0.36310071  0.92331994    -0.80000
O1134       O  0.33317232  0.27342222  0.96784755    -0.81800
O1135       O  0.36253393  0.40469422  0.98548440    -0.84500
C1136       C  0.43760837  0.33246344  0.93001816     0.96300
C1137       C  0.37287662  0.28973451  0.88059683     1.03700
O1138       O  0.36340163  0.34183360  0.94440841    -1.13500
O1139       O  0.31213262  0.39682036  0.93732442    -0.75900
O1140       O  0.33500849  0.37979702  0.89245050    -0.79400
O1141       O  0.42260438  0.30258101  0.93725080    -0.80100
C1142       C  0.31173734  0.39284282  0.90702518     0.95200
O1143       O  0.37912012  0.42135548  0.93702548    -0.78000
O1144       O  0.30257178  0.32244548  0.95958428    -0.83200
C1145       C  0.37127910  0.30861199  0.52070114     0.97800
C1146       C  0.30647850  0.28858023  0.96737228     1.03700
O1147       O  0.39155562  0.30315235  0.49950423    -0.78900
C1148       C  0.37515567  0.42843061  0.96684414     1.02000
Fe1149     Fe  0.37849459  0.12980469  0.66169109     1.65800
Fe1150     Fe  0.33012919  0.13943535  0.72365174     1.73200
Fe1151     Fe  0.37583819  0.21125150  0.70252311     1.54400
O1152       O  0.42133079  0.20036221  0.68837987    -0.82600
O1153       O  0.30074265  0.18053354  0.71021162    -0.80900
O1154       O  0.42298341  0.13938691  0.67638879    -0.85100
O1155       O  0.38054377  0.17596680  0.63019468    -0.80000
O1156       O  0.38848886  0.19890173  0.74812765    -0.81800
O1157       O  0.30960230  0.10547637  0.68840714    -0.84500
C1158       C  0.37140198  0.21008151  0.63125502     0.96300
C1159       C  0.43633016  0.17052130  0.68211545     1.03700
O1160       O  0.36181966  0.15998954  0.69587904    -1.13500
O1161       O  0.35877692  0.09744681  0.73749857    -0.75900
O1162       O  0.37871132  0.08080839  0.69044284    -0.79400
O1163       O  0.36376071  0.22568276  0.65729646    -0.80100
C1164       C  0.37377760  0.07464877  0.72024842     0.95200
O1165       O  0.33492515  0.11916375  0.64400065    -0.78000
O1166       O  0.34458760  0.17216281  0.76310248    -0.83200
C1167       C  0.30519063  0.21447901  0.71796218     0.97800
C1168       C  0.36836467  0.19232069  0.76939183     1.03700
O1169       O  0.33220894  0.22917810  0.71847193    -0.78900
C1170       C  0.31079620  0.10731179  0.65801158     1.02000
Fe1171     Fe  0.62853493  0.13122905  0.66603972     1.65800
Fe1172     Fe  0.67599375  0.13907551  0.72887354     1.73200
Fe1173     Fe  0.63050942  0.21084406  0.70928778     1.54400
O1174       O  0.64131256  0.22812726  0.66433251    -0.82600
O1175       O  0.66297880  0.17177156  0.76923197    -0.80900
O1176       O  0.62584801  0.17841980  0.63579365    -0.85100
O1177       O  0.58359873  0.13889242  0.68087513    -0.80000
O1178       O  0.67456083  0.22888686  0.72432530    -0.81800
O1179       O  0.64642833  0.09671403  0.74179930    -0.84500
C1180       C  0.57014296  0.16925222  0.68858305     0.96300
C1181       C  0.63349775  0.21317385  0.63805880     1.03700
O1182       O  0.64476649  0.16039158  0.70115000    -1.13500
O1183       O  0.69621222  0.10598607  0.69273919    -0.75900
O1184       O  0.67257783  0.12328742  0.64846021    -0.79400
O1185       O  0.58506995  0.19908650  0.69579741    -0.80100
C1186       C  0.69618573  0.11048610  0.66247320     0.95200
O1187       O  0.62913649  0.08094476  0.69326245    -0.78000
O1188       O  0.70571961  0.18032185  0.71595007    -0.83200
C1189       C  0.63976018  0.19276202  0.77490665     0.97800
C1190       C  0.70146969  0.21434214  0.72324197     1.03700
O1191       O  0.61862729  0.19557281  0.75448713    -0.78900
C1192       C  0.63310653  0.07368908  0.72302517     1.02000
Fe1193     Fe  0.88051647  0.37073884  0.83605301     1.65800
Fe1194     Fe  0.83288653  0.36114688  0.77339456     1.73200
Fe1195     Fe  0.87610600  0.28858160  0.79664672     1.54400
O1196       O  0.92168208  0.29938332  0.81076127    -0.82600
O1197       O  0.80208961  0.32046866  0.78552660    -0.80900
O1198       O  0.92466057  0.36106870  0.81995763    -0.85100
O1199       O  0.88308645  0.32490511  0.86799050    -0.80000
O1200       O  0.88967398  0.29860422  0.75095344    -0.81800
O1201       O  0.81184689  0.39396735  0.80901957    -0.84500
C1202       C  0.87200500  0.29144926  0.86733635     0.96300
C1203       C  0.93730211  0.32972003  0.81391780     1.03700
O1204       O  0.86339926  0.34030768  0.80197492    -1.13500
O1205       O  0.86231425  0.40353121  0.76020222    -0.75900
O1206       O  0.88034688  0.42008930  0.80800731    -0.79400
O1207       O  0.86273118  0.27591921  0.84190691    -0.80100
C1208       C  0.87525681  0.42725146  0.77852546     0.95200
O1209       O  0.83681652  0.38103607  0.85379322    -0.78000
O1210       O  0.84825463  0.32888636  0.73408247    -0.83200
C1211       C  0.80603464  0.28592845  0.78026719     0.97800
C1212       C  0.87122596  0.30724896  0.72885742     1.03700
O1213       O  0.83262658  0.27082154  0.78078314    -0.78900
C1214       C  0.81262243  0.39200186  0.83944159     1.02000
Fe1215     Fe  0.12832148  0.37187464  0.83481518     1.65800
Fe1216     Fe  0.17536258  0.36543378  0.77149972     1.73200
Fe1217     Fe  0.13277036  0.29086309  0.79345889     1.54400
O1218       O  0.14555680  0.27657588  0.83880492    -0.82600
O1219       O  0.16161177  0.33231680  0.73203067    -0.80900
O1220       O  0.12660961  0.32521707  0.86618584    -0.85100
O1221       O  0.08381150  0.36125486  0.81964668    -0.80000
O1222       O  0.17682081  0.27543440  0.77724399    -0.81800
O1223       O  0.14469414  0.40609696  0.75872907    -0.84500
C1224       C  0.07123599  0.32962330  0.81341582     0.96300
C1225       C  0.13711330  0.29169690  0.86474420     1.03700
O1226       O  0.14519319  0.34273348  0.79997179    -1.13500
O1227       O  0.19528763  0.39968485  0.80708598    -0.75900
O1228       O  0.17223827  0.38244000  0.85204584    -0.79400
O1229       O  0.08703290  0.30018459  0.80780122    -0.80100
C1230       C  0.19560984  0.39564024  0.83739334     0.95200
O1231       O  0.12797888  0.42211138  0.80714723    -0.78000
O1232       O  0.20686587  0.32594679  0.78330601    -0.83200
C1233       C  0.13923961  0.30974650  0.72617235     0.97800
C1234       C  0.20330835  0.29153027  0.77655573     1.03700
O1235       O  0.11954890  0.30194449  0.74762303    -0.78900
C1236       C  0.13193043  0.42945806  0.77739170     1.02000
Fe1237     Fe  0.12956153  0.12952018  0.58546498     1.65800
Fe1238     Fe  0.17648546  0.13746364  0.52247141     1.73200
Fe1239     Fe  0.13388526  0.21087210  0.54416689     1.54400
O1240       O  0.08792293  0.20005578  0.55761969    -0.82600
O1241       O  0.20773690  0.17629533  0.53662896    -0.80900
O1242       O  0.08502717  0.13931490  0.57109246    -0.85100
O1243       O  0.12771678  0.17594332  0.61722192    -0.80000
O1244       O  0.12091567  0.19972885  0.99432888    -0.81800
O1245       O  0.19521727  0.10156364  0.55709053    -0.84500
C1246       C  0.13697707  0.21023502  0.61566350     0.96300
C1247       C  0.07230922  0.17035006  0.56410485     1.03700
O1248       O  0.14614266  0.15930428  0.55073705    -1.13500
O1249       O  0.14524073  0.09793372  0.50858639    -0.75900
O1250       O  0.12908142  0.07980136  0.55675923    -0.79400
O1251       O  0.14565881  0.22527892  0.58971742    -0.80100
C1252       C  0.13266079  0.07362883  0.52670343     0.95200
O1253       O  0.17353421  0.11950853  0.60236131    -0.78000
O1254       O  0.16453708  0.17193487  0.98027210    -0.83200
C1255       C  0.20490380  0.21063268  0.52974307     0.97800
C1256       C  0.14140503  0.19257339  0.97365417     1.03700
O1257       O  0.17864841  0.22693778  0.52932336    -0.78900
C1258       C  0.19614463  0.10546812  0.58733373     1.02000
Fe1259     Fe  0.87943024  0.13132266  0.58784411     1.65800
Fe1260     Fe  0.83294784  0.13969658  0.52450242     1.73200
Fe1261     Fe  0.87844695  0.21167403  0.54566612     1.54400
O1262       O  0.86615357  0.22773065  0.59046127    -0.82600
O1263       O  0.84869248  0.17156934  0.98186976    -0.80900
O1264       O  0.88227538  0.17832736  0.61869386    -0.85100
O1265       O  0.92444837  0.13944418  0.57340928    -0.80000
O1266       O  0.83505035  0.22955043  0.52957600    -0.81800
O1267       O  0.86208033  0.09745631  0.51173944    -0.84500
C1268       C  0.93818679  0.17034339  0.56732610     0.96300
C1269       C  0.87327181  0.21247949  0.61669686     1.03700
O1270       O  0.86390479  0.16083822  0.55280759    -1.13500
O1271       O  0.81163143  0.10652833  0.56015388    -0.75900
O1272       O  0.83514783  0.12296934  0.60494103    -0.79400
O1273       O  0.92354796  0.20019645  0.56029780    -0.80100
C1274       C  0.81155151  0.11027792  0.59050263     0.95200
O1275       O  0.87858071  0.08110490  0.56012794    -0.78000
O1276       O  0.80336493  0.18090435  0.53693305    -0.83200
C1277       C  0.87223780  0.19249691  0.97639697     0.97800
C1278       C  0.80800255  0.21499441  0.52976433     1.03700
O1279       O  0.89186416  0.19915671  0.99797068    -0.78900
C1280       C  0.87470984  0.07395194  0.53031937     1.02000
C1281       C  0.03798806  0.17174547  0.56465763    -0.07100
C1282       C  0.02220129  0.14988839  0.58753659    -0.18200
C1283       C  0.98992557  0.15003000  0.58979631     0.10100
C1284       C  0.97247477  0.17167323  0.56805034    -0.07000
C1285       C  0.98821390  0.19417835  0.54561147    -0.18200
C1286       C  0.02055817  0.19421750  0.54349415     0.10200
S1287       S  0.97266692  0.12350481  0.62205632    -0.33200
S1288       S  0.03646177  0.22456375  0.01056144    -0.33200
H1289       H  0.05789796  0.19752228  0.00049550     0.28200
H1290       H  0.94989955  0.15041824  0.62895876     0.28200
H1291       H  0.03517969  0.13319250  0.60444781     0.18800
H1292       H  0.97418246  0.21222831  0.02778945     0.18800
C1293       C  0.13772932  0.28808155  0.69543785    -0.07100
C1294       C  0.11255192  0.26308595  0.69083019    -0.18200
C1295       C  0.11182096  0.23709992  0.66559626     0.10100
C1296       C  0.13712489  0.23487864  0.64435787    -0.07000
C1297       C  0.16196706  0.26019013  0.64834484    -0.18200
C1298       C  0.16249605  0.28677905  0.67311837     0.10200
S1299       S  0.07738247  0.20865433  0.66116996    -0.33200
S1300       S  0.19587410  0.31739765  0.67473751    -0.33200
H1301       H  0.17807913  0.35032637  0.67657451     0.28200
H1302       H  0.07588299  0.21245726  0.62775546     0.28200
H1303       H  0.09311297  0.26344551  0.70720151     0.18800
H1304       H  0.18120707  0.25946183  0.63170174     0.18800
C1305       C  0.14059473  0.21364597  0.94310176    -0.07100
C1306       C  0.16732119  0.23386058  0.93403943    -0.18200
C1307       C  0.16653254  0.26096104  0.90967465     0.10100
C1308       C  0.13845341  0.26809730  0.89371018    -0.07000
C1309       C  0.11198673  0.24727098  0.90214551    -0.18200
C1310       C  0.11279753  0.22000389  0.92632811     0.10200
S1311       S  0.20201242  0.28573269  0.90033670    -0.33200
S1312       S  0.07799146  0.19309168  0.93360107    -0.33200
H1313       H  0.09290497  0.16098292  0.94547838     0.28200
H1314       H  0.18814861  0.31871129  0.88892897     0.28200
H1315       H  0.18869164  0.22982922  0.94705018     0.18800
H1316       H  0.09071362  0.25147577  0.88910098     0.18800
C1317       C  0.87425566  0.28740671  0.69760258    -0.07100
C1318       C  0.84805952  0.28501466  0.67782407    -0.18200
C1319       C  0.84680859  0.26010787  0.65194904     0.10100
C1320       C  0.87221851  0.23652690  0.64543025    -0.07000
C1321       C  0.89889295  0.23984203  0.66414494    -0.18200
C1322       C  0.90057366  0.26552591  0.68962962     0.10200
S1323       S  0.81163144  0.25891156  0.62880861    -0.33200
S1324       S  0.93692821  0.27070727  0.71066238    -0.33200
H1325       H  0.95440987  0.24626031  0.69146767     0.28200
H1326       H  0.81253215  0.22012692  0.62210503     0.28200
H1327       H  0.82769380  0.30134849  0.68335627     0.18800
H1328       H  0.91881171  0.22299883  0.65805471     0.18800
C1329       C  0.87408162  0.21442078  0.94616061    -0.07100
C1330       C  0.84629425  0.22110977  0.92974954    -0.18200
C1331       C  0.84466021  0.24785003  0.90525977     0.10100
C1332       C  0.87147754  0.26805203  0.89633557    -0.07000
C1333       C  0.89941954  0.26101941  0.91197035    -0.18200
C1334       C  0.90119491  0.23424074  0.93655912     0.10200
S1335       S  0.80785228  0.25766010  0.88671833    -0.33200
S1336       S  0.93848705  0.22485243  0.95428905    -0.33200
H1337       H  0.95598270  0.25009547  0.93555517     0.28200
H1338       H  0.78989288  0.23249565  0.90506404     0.28200
H1339       H  0.82530856  0.20682597  0.93725448     0.18800
H1340       H  0.92009843  0.27569996  0.90405112     0.18800
C1341       C  0.97145439  0.32837023  0.81116776    -0.07100
C1342       C  0.98728765  0.29767146  0.82427010    -0.18200
C1343       C  0.01979792  0.29673559  0.82478199     0.10100
C1344       C  0.03694050  0.32747664  0.81223690    -0.07000
C1345       C  0.02100006  0.35754371  0.79828902    -0.18200
C1346       C  0.98869743  0.35786007  0.79686336     0.10200
S1347       S  0.03885861  0.25730117  0.84327943    -0.33200
S1348       S  0.97097849  0.39580024  0.77507300    -0.33200
H1349       H  0.94683617  0.37364069  0.76234945     0.28200
H1350       H  0.01206213  0.23626537  0.85053840     0.28200
H1351       H  0.97410159  0.27493195  0.83501729     0.18800
H1352       H  0.03388633  0.38067783  0.78768660     0.18800
C1353       C  0.72503119  0.10273800  0.64338477    -0.07100
C1354       C  0.75346658  0.10036154  0.65953681    -0.18200
C1355       C  0.78181562  0.09927563  0.64307829     0.10100
C1356       C  0.78251025  0.10198677  0.60921271    -0.07000
C1357       C  0.75404543  0.10132679  0.59298173    -0.18200
C1358       C  0.72553719  0.10120426  0.60941662     0.10200
S1359       S  0.81610962  0.09433155  0.66706908    -0.33200
S1360       S  0.69029503  0.09932876  0.58620880    -0.33200
H1361       H  0.70405079  0.09381208  0.55609322     0.28200
H1362       H  0.83076038  0.06986513  0.64543954     0.28200
H1363       H  0.75382775  0.10037433  0.68542920     0.18800
H1364       H  0.75405461  0.10258680  0.56714186     0.18800
C1365       C  0.77935685  0.26439670  0.76877097    -0.07100
C1366       C  0.78366180  0.24272129  0.74113782    -0.18200
C1367       C  0.75844750  0.22815887  0.72427966     0.10100
C1368       C  0.72822502  0.23527547  0.73550629    -0.07000
C1369       C  0.72394647  0.25688980  0.76320804    -0.18200
C1370       C  0.74913836  0.27116752  0.78014938     0.10200
S1371       S  0.76515299  0.20207226  0.68776635    -0.33200
S1372       S  0.74115039  0.29687367  0.81645580    -0.33200
H1373       H  0.76925977  0.28840562  0.83151753     0.28200
H1374       H  0.79762423  0.20136433  0.68960677     0.28200
H1375       H  0.80680937  0.23884252  0.73182705     0.18800
H1376       H  0.70086932  0.26114522  0.77265868     0.18800
C1377       C  0.47057393  0.17179534  0.68208962    -0.07100
C1378       C  0.48577270  0.19347293  0.70537709    -0.18200
C1379       C  0.51796872  0.19245329  0.70874686     0.10100
C1380       C  0.53584404  0.17014435  0.68772305    -0.07000
C1381       C  0.52059893  0.14899699  0.66407958    -0.18200
C1382       C  0.48843955  0.14986831  0.66080213     0.10200
S1383       S  0.53432855  0.21807175  0.74182970    -0.33200
S1384       S  0.47189634  0.12367647  0.62799679    -0.33200
H1385       H  0.44913402  0.15048804  0.62097786     0.28200
H1386       H  0.55536523  0.18968412  0.74998809     0.28200
H1387       H  0.47234839  0.21000147  0.72210467     0.18800
H1388       H  0.53392899  0.13237347  0.64734273     0.18800
C1389       C  0.28248114  0.09777125  0.63871727    -0.07100
C1390       C  0.25421405  0.09218984  0.65488447    -0.18200
C1391       C  0.22592325  0.09055688  0.63855005     0.10100
C1392       C  0.22515075  0.09603351  0.60503973    -0.07000
C1393       C  0.25347842  0.09767565  0.58851603    -0.18200
C1394       C  0.28200988  0.09804294  0.60470879     0.10200
S1395       S  0.19171264  0.08137994  0.66204905    -0.33200
S1396       S  0.31717595  0.09951791  0.58116290    -0.33200
H1397       H  0.30336546  0.09813247  0.55077552     0.28200
H1398       H  0.17665664  0.06043714  0.63802757     0.28200
H1399       H  0.25387086  0.09020875  0.68071940     0.18800
H1400       H  0.25326524  0.10070518  0.56278364     0.18800
C1401       C  0.27858465  0.23513346  0.73090362    -0.07100
C1402       C  0.25677535  0.21435568  0.74882608    -0.18200
C1403       C  0.23300744  0.23194533  0.76550346     0.10100
C1404       C  0.23025749  0.27134758  0.76377776    -0.07000
C1405       C  0.25207815  0.29218388  0.74584029    -0.18200
C1406       C  0.27593815  0.27454757  0.72920367     0.10200
S1407       S  0.20804406  0.20264768  0.78969612    -0.33200
S1408       S  0.30110765  0.30365471  0.70507222    -0.33200
H1409       H  0.30485613  0.27689199  0.68059019     0.28200
H1410       H  0.20515376  0.22901075  0.81462823     0.28200
H1411       H  0.25898566  0.18410773  0.75107457     0.18800
H1412       H  0.24981488  0.32241802  0.74356064     0.18800
C1413       C  0.37256005  0.26485499  0.85216480    -0.07100
C1414       C  0.34936671  0.23698741  0.85006342    -0.18200
C1415       C  0.34863996  0.21086377  0.82499800     0.10100
C1416       C  0.37113599  0.21303439  0.80036308    -0.07000
C1417       C  0.39494258  0.24028432  0.80323573    -0.18200
C1418       C  0.39613937  0.26558956  0.82884211     0.10200
S1419       S  0.31846009  0.17563438  0.82642542    -0.33200
S1420       S  0.42901611  0.29703594  0.83087092    -0.33200
H1421       H  0.43359395  0.29240248  0.86391357     0.28200
H1422       H  0.33840677  0.14589122  0.81859548     0.28200
H1423       H  0.33164908  0.23529182  0.86838595     0.18800
H1424       H  0.41282685  0.24241858  0.78514647     0.18800
C1425       C  0.37296801  0.28583884  0.55030897    -0.07100
C1426       C  0.38658616  0.25007334  0.54791489    -0.18200
C1427       C  0.38508068  0.22397656  0.57283756     0.10100
C1428       C  0.37051938  0.23391501  0.60191976    -0.07000
C1429       C  0.35674293  0.26977315  0.60417141    -0.18200
C1430       C  0.35791177  0.29565398  0.57899555     0.10200
S1431       S  0.40189737  0.17861169  0.56530103    -0.33200
S1432       S  0.34057834  0.34099370  0.58551903    -0.33200
H1433       H  0.36296360  0.36117340  0.56790956     0.28200
H1434       H  0.37423575  0.15906399  0.57217607     0.28200
H1435       H  0.39740890  0.24146252  0.52572674     0.18800
H1436       H  0.34528709  0.27827723  0.62603311     0.18800
C1437       C  0.23254569  0.22992143  0.51752952    -0.07100
C1438       C  0.25264073  0.20887955  0.49802073    -0.18200
C1439       C  0.27398180  0.23023826  0.97561271     0.10100
C1440       C  0.27956674  0.26878088  0.98051628    -0.07000
C1441       C  0.26014622  0.28939015  0.00103191    -0.18200
C1442       C  0.23783107  0.26866099  0.52166769     0.10200
S1443       S  0.29581177  0.20228869  0.94767967    -0.33200
S1444       S  0.21542298  0.29729994  0.54857420    -0.33200
H1445       H  0.20981186  0.26848685  0.57096012     0.28200
H1446       H  0.30139226  0.23174031  0.92590289     0.28200
H1447       H  0.24848253  0.17907811  0.49427091     0.18800
H1448       H  0.26467780  0.31900919  0.00539265     0.18800
C1449       C  0.22484732  0.40385894  0.85561714    -0.07100
C1450       C  0.25307495  0.40418555  0.83882858    -0.18200
C1451       C  0.28179818  0.40336416  0.85467125     0.10100
C1452       C  0.28275703  0.40153669  0.88860240    -0.07000
C1453       C  0.25459033  0.40450578  0.90534677    -0.18200
C1454       C  0.22602447  0.40631566  0.88945349     0.10200
S1455       S  0.31673184  0.40456872  0.83078385    -0.33200
S1456       S  0.19208227  0.41181119  0.91403335    -0.33200
H1457       H  0.17715243  0.43596386  0.89244349     0.28200
H1458       H  0.30261728  0.40386347  0.80053317     0.28200
H1459       H  0.25266773  0.40337077  0.81298538     0.18800
H1460       H  0.25459747  0.40435090  0.93124028     0.18800
C1461       C  0.72781911  0.26549858  0.98774521    -0.07100
C1462       C  0.75732834  0.27824353  0.97836013    -0.18200
C1463       C  0.78346104  0.26205890  0.49271124     0.10100
C1464       C  0.78110192  0.23606511  0.51814585    -0.07000
C1465       C  0.75161741  0.22389440  0.52819429    -0.18200
C1466       C  0.72533332  0.23863326  0.01252966     0.10200
S1467       S  0.81954842  0.28094171  0.47805992    -0.33200
S1468       S  0.68902060  0.22185751  0.02838717    -0.33200
H1469       H  0.67906626  0.20748965  0.99876802     0.28200
H1470       H  0.82843006  0.29488267  0.50818984     0.28200
H1471       H  0.75965182  0.29939514  0.95984119     0.18800
H1472       H  0.74941517  0.20372689  0.54752642     0.18800
C1473       C  0.72968378  0.39952376  0.89825774    -0.07100
C1474       C  0.72823084  0.40751520  0.86533037    -0.18200
C1475       C  0.75484278  0.40877757  0.84594366     0.10100
C1476       C  0.78424127  0.40046628  0.85916697    -0.07000
C1477       C  0.78585322  0.39513454  0.89251869    -0.18200
C1478       C  0.75930845  0.39451725  0.91207608     0.10200
S1479       S  0.74912181  0.42053043  0.80452274    -0.33200
S1480       S  0.76405710  0.38462727  0.95419338    -0.33200
H1481       H  0.79541697  0.37450282  0.95317273     0.28200
H1482       H  0.77381009  0.44659476  0.80381272     0.28200
H1483       H  0.70594466  0.41227567  0.85432363     0.18800
H1484       H  0.80806401  0.38975883  0.90335516     0.18800
C1485       C  0.64194548  0.26663732  0.85762494    -0.07100
C1486       C  0.62309553  0.27508054  0.83151682    -0.18200
C1487       C  0.62182724  0.25178734  0.80447212     0.10100
C1488       C  0.63916058  0.21783054  0.80366449    -0.07000
C1489       C  0.65893483  0.21014553  0.82938998    -0.18200
C1490       C  0.66096885  0.23431823  0.85597496     0.10200
S1491       S  0.59973756  0.26827553  0.77062149    -0.33200
S1492       S  0.68928433  0.22450624  0.88659403    -0.33200
H1493       H  0.70293622  0.19326078  0.87169477     0.28200
H1494       H  0.58384916  0.29732949  0.78631910     0.28200
H1495       H  0.60916428  0.30023528  0.83235065     0.18800
H1496       H  0.67323925  0.18531597  0.82843159     0.18800
C1497       C  0.63338284  0.28869167  0.55710956    -0.07100
C1498       C  0.61229388  0.25822750  0.55855526    -0.18200
C1499       C  0.61150591  0.23346279  0.58449961     0.10100
C1500       C  0.63293602  0.23809264  0.60963425    -0.07000
C1501       C  0.65318536  0.26929995  0.60887988    -0.18200
C1502       C  0.65322046  0.29489935  0.58348835     0.10200
S1503       S  0.58188495  0.19745725  0.58434090    -0.33200
S1504       S  0.67883398  0.33496148  0.58680059    -0.33200
H1505       H  0.65739603  0.36035218  0.57398744     0.28200
H1506       H  0.57350124  0.20291470  0.61652846     0.28200
H1507       H  0.59648252  0.25296417  0.53897557     0.18800
H1508       H  0.66913634  0.27404920  0.62844875     0.18800
C1509       C  0.47197673  0.33159774  0.93011689    -0.07100
C1510       C  0.48694369  0.30936108  0.95300875    -0.18200
C1511       C  0.51921991  0.30938469  0.95579015     0.10100
C1512       C  0.53747652  0.33128636  0.93456472    -0.07000
C1513       C  0.52251268  0.35289818  0.91120783    -0.18200
C1514       C  0.49013533  0.35319939  0.90859997     0.10200
S1515       S  0.53651771  0.28774482  0.49391437    -0.33200
S1516       S  0.47258242  0.37976557  0.87663716    -0.33200
H1517       H  0.50011691  0.39293734  0.86244080     0.28200
H1518       H  0.55773032  0.31704620  0.50012053     0.28200
H1519       H  0.47331996  0.29292635  0.96979840     0.18800
H1520       H  0.53635395  0.36922414  0.89458145     0.18800
C1521       C  0.12513951  0.53768920  0.73109388    -0.07100
C1522       C  0.12527510  0.53538898  0.76480256    -0.18200
C1523       C  0.12420634  0.50082253  0.78097501     0.10100
C1524       C  0.12367643  0.46686636  0.76333416    -0.07000
C1525       C  0.12014331  0.46929757  0.72985753    -0.18200
C1526       C  0.12035914  0.50396209  0.71371763     0.10200
S1527       S  0.12644068  0.50233692  0.82390945    -0.33200
S1528       S  0.11662664  0.50256915  0.67090371    -0.33200
H1529       H  0.09299336  0.52956610  0.67044677     0.28200
H1530       H  0.10034932  0.47889898  0.82805147     0.28200
H1531       H  0.12757000  0.56081961  0.77893188     0.18800
H1532       H  0.11850493  0.44373508  0.71580287     0.18800
C1533       C  0.88200690  0.53600799  0.73333301    -0.07100
C1534       C  0.88129026  0.53326025  0.76699065    -0.18200
C1535       C  0.88074860  0.49851378  0.78267760     0.10100
C1536       C  0.88255265  0.46494454  0.76470266    -0.07000
C1537       C  0.88724431  0.46778224  0.73142531    -0.18200
C1538       C  0.88664520  0.50258045  0.71557562     0.10200
S1539       S  0.87414302  0.49933346  0.82520090    -0.33200
S1540       S  0.88984402  0.50169962  0.67269267    -0.33200
H1541       H  0.85985732  0.51584780  0.66818906     0.28200
H1542       H  0.84736280  0.47662876  0.82341563     0.28200
H1543       H  0.87877144  0.55838469  0.78141441     0.18800
H1544       H  0.88947554  0.44240010  0.71726134     0.18800
C1545       C  0.97095645  0.66874767  0.68414565    -0.07100
C1546       C  0.98679854  0.70234888  0.67690723    -0.18200
C1547       C  0.01914408  0.70422439  0.67658088     0.10100
C1548       C  0.03658402  0.67152959  0.68303986    -0.07000
C1549       C  0.02068320  0.63796877  0.69042722    -0.18200
C1550       C  0.98836965  0.63636987  0.69173376     0.10200
S1551       S  0.03652572  0.74867656  0.66593312    -0.33200
S1552       S  0.97111210  0.59255997  0.70474342    -0.33200
H1553       H  0.94861806  0.60965576  0.72416696     0.28200
H1554       H  0.04845086  0.75444722  0.69684406     0.28200
H1555       H  0.97388316  0.72738731  0.67095921     0.18800
H1556       H  0.03356623  0.61280490  0.69607814     0.18800
C1557       C  0.88640675  0.96504738  0.98120848    -0.07100
C1558       C  0.88534794  0.96824239  0.51789936    -0.18200
C1559       C  0.88535980  0.00301339  0.53383402     0.10100
C1560       C  0.88321500  0.03670833  0.51601501    -0.07000
C1561       C  0.88335660  0.03331707  0.97836392    -0.18200
C1562       C  0.88492199  0.99839350  0.96287356     0.10200
S1563       S  0.88577421  0.00186624  0.57683949    -0.33200
S1564       S  0.88230887  0.99857917  0.91992585    -0.33200
H1565       H  0.90852200  0.97579785  0.91598972     0.28200
H1566       H  0.91083303  0.02725539  0.57908884     0.28200
H1567       H  0.88507519  0.94284590  0.53222579     0.18800
H1568       H  0.88035828  0.05818297  0.96375604     0.18800
C1569       C  0.86988276  0.76406680  0.85328663    -0.07100
C1570       C  0.89700386  0.76024063  0.83526585    -0.18200
C1571       C  0.89886763  0.73448989  0.80996837     0.10100
C1572       C  0.87245418  0.71281006  0.80118760    -0.07000
C1573       C  0.84552537  0.71611670  0.81992431    -0.18200
C1574       C  0.84395642  0.74131949  0.84565525     0.10200
S1575       S  0.93605397  0.73011457  0.79078232    -0.33200
S1576       S  0.80763038  0.74435522  0.86670413    -0.33200
H1577       H  0.81058825  0.78253082  0.87515069     0.28200
H1578       H  0.93357398  0.69089866  0.78656041     0.28200
H1579       H  0.91738532  0.77645801  0.84176628     0.18800
H1580       H  0.82487121  0.70037510  0.81358161     0.18800
C1581       C  0.87327888  0.78595574  0.54924821    -0.07100
C1582       C  0.89107095  0.75283981  0.54858679    -0.18200
C1583       C  0.89060094  0.72689363  0.57376461     0.10100
C1584       C  0.87213246  0.73384952  0.60102941    -0.07000
C1585       C  0.85473096  0.76726563  0.60188184    -0.18200
C1586       C  0.85543844  0.79338355  0.57682277     0.10200
S1587       S  0.91485734  0.68621830  0.56973464    -0.33200
S1588       S  0.83391962  0.83612909  0.58229971    -0.33200
H1589       H  0.85668671  0.85937085  0.56825051     0.28200
H1590       H  0.88962725  0.66095421  0.57062166     0.28200
H1591       H  0.90487530  0.74621263  0.52772184     0.18800
H1592       H  0.84072675  0.77366309  0.62266097     0.18800
C1593       C  0.12801808  0.96426477  0.97959734    -0.07100
C1594       C  0.11947445  0.96822475  0.51276844    -0.18200
C1595       C  0.11870494  0.00305535  0.52882611     0.10100
C1596       C  0.12460765  0.03654409  0.51149313    -0.07000
C1597       C  0.12979133  0.03263554  0.97688945    -0.18200
C1598       C  0.13044934  0.99759881  0.96135036     0.10200
S1599       S  0.11180208  0.00347878  0.57143947    -0.33200
S1600       S  0.13736986  0.99642528  0.91868590    -0.33200
H1601       H  0.13972785  0.03548408  0.91371316     0.28200
H1602       H  0.10275941  0.96551060  0.57435565     0.28200
H1603       H  0.11678554  0.94253285  0.52643173     0.18800
H1604       H  0.13259027  0.05781011  0.96261991     0.18800
C1605       C  0.14143388  0.76514974  0.84953968    -0.07100
C1606       C  0.11330733  0.75470820  0.83543974    -0.18200
C1607       C  0.11207882  0.72823049  0.81066630     0.10100
C1608       C  0.13980726  0.71251201  0.79861549    -0.07000
C1609       C  0.16794862  0.72250237  0.81336614    -0.18200
C1610       C  0.16904085  0.74852969  0.83855553     0.10200
S1611       S  0.07422737  0.71491389  0.79634701    -0.33200
S1612       S  0.20648048  0.76046628  0.85483685    -0.33200
H1613       H  0.19890307  0.79721184  0.86440791     0.28200
H1614       H  0.08209418  0.67727052  0.79004000     0.28200
H1615       H  0.09192661  0.76620750  0.84467957     0.18800
H1616       H  0.18951685  0.71147706  0.80420437     0.18800
C1617       C  0.13538890  0.78887506  0.54826991    -0.07100
C1618       C  0.11144462  0.76186484  0.55166782    -0.18200
C1619       C  0.11016995  0.73698628  0.57763913     0.10100
C1620       C  0.13383733  0.73788811  0.60081888    -0.07000
C1621       C  0.15712716  0.76556344  0.59816809    -0.18200
C1622       C  0.15791282  0.79126198  0.57281028     0.10200
S1623       S  0.07718424  0.70575629  0.58015101    -0.33200
S1624       S  0.18841800  0.82606146  0.57373347    -0.33200
H1625       H  0.16856027  0.85611608  0.56667914     0.28200
H1626       H  0.07339164  0.70954441  0.61336397     0.28200
H1627       H  0.09352160  0.75960486  0.53370361     0.18800
H1628       H  0.17498129  0.76739800  0.61626936     0.18800
C1629       C  0.03850375  0.82651872  0.92870954    -0.07100
C1630       C  0.02301515  0.86059755  0.93402701    -0.18200
C1631       C  0.99068046  0.86247385  0.93573443     0.10100
C1632       C  0.97267229  0.82932826  0.93143986    -0.07000
C1633       C  0.98805649  0.79503475  0.92665664    -0.18200
C1634       C  0.02056346  0.79311308  0.92529869     0.10200
S1635       S  0.97330871  0.90733243  0.94531407    -0.33200
S1636       S  0.03821824  0.74794750  0.91785539    -0.33200
H1637       H  0.01118453  0.72584794  0.92031109     0.28200
H1638       H  0.00033165  0.92953196  0.94355341     0.28200
H1639       H  0.03644038  0.88606988  0.93760197     0.18800
H1640       H  0.97446184  0.76964977  0.92326988     0.18800
C1641       C  0.38325888  0.46590228  0.98107790    -0.07100
C1642       C  0.38754584  0.46884827  0.51448783    -0.18200
C1643       C  0.38860652  0.50436513  0.52949962     0.10100
C1644       C  0.38346569  0.53717928  0.51109617    -0.07000
C1645       C  0.38720990  0.53425122  0.97870865    -0.18200
C1646       C  0.38680651  0.49927254  0.96293583     0.10200
S1647       S  0.39523679  0.50656039  0.57211462    -0.33200
S1648       S  0.38854408  0.49852724  0.91974189    -0.33200
H1649       H  0.39182033  0.53753796  0.91497736     0.28200
H1650       H  0.40257214  0.46841646  0.57650822     0.28200
H1651       H  0.39003408  0.44375061  0.52888420     0.18800
H1652       H  0.38882101  0.55972699  0.96461620     0.18800
C1653       C  0.22837266  0.76745429  0.98461712    -0.07100
C1654       C  0.23246802  0.72921839  0.97852077    -0.18200
C1655       C  0.25731264  0.70998740  0.99179830     0.10100
C1656       C  0.27910008  0.73147746  0.50998670    -0.07000
C1657       C  0.27631935  0.77020850  0.51461388    -0.18200
C1658       C  0.25188091  0.79004225  0.50110633     0.10200
S1659       S  0.26312225  0.66131107  0.98051310    -0.33200
S1660       S  0.24848419  0.83969260  0.51021977    -0.33200
H1661       H  0.27560105  0.84348775  0.52847443     0.28200
H1662       H  0.23996685  0.65918510  0.95701069     0.28200
H1663       H  0.21654123  0.71472658  0.96271610     0.18800
H1664       H  0.29323539  0.78480838  0.52920433     0.18800
C1665       C  0.28324626  0.60356370  0.60163049    -0.07100
C1666       C  0.25561175  0.60962000  0.58490465    -0.18200
C1667       C  0.22679625  0.61106356  0.60052006     0.10100
C1668       C  0.22510559  0.60560546  0.63420770    -0.07000
C1669       C  0.25272969  0.59730137  0.65052300    -0.18200
C1670       C  0.28142487  0.59608060  0.63479902     0.10200
S1671       S  0.19305454  0.62102812  0.57651436    -0.33200
S1672       S  0.31476751  0.58477928  0.65862281    -0.33200
H1673       H  0.32971851  0.56442668  0.63430048     0.28200
H1674       H  0.20867567  0.63239408  0.54856431     0.28200
H1675       H  0.25676307  0.61513264  0.55948696     0.18800
H1676       H  0.25226307  0.59261325  0.67609821     0.18800
C1677       C  0.62404342  0.46448926  0.98908423    -0.07100
C1678       C  0.62044749  0.49586167  0.96911970    -0.18200
C1679       C  0.61853116  0.53237218  0.98172867     0.10100
C1680       C  0.62305871  0.53645795  0.51618952    -0.07000
C1681       C  0.62402442  0.50489467  0.53622441    -0.18200
C1682       C  0.62208168  0.47017919  0.02272232     0.10200
S1683       S  0.61202172  0.57008838  0.95373400    -0.33200
S1684       S  0.62000816  0.43219730  0.05126773    -0.33200
H1685       H  0.60223575  0.40841281  0.03147262     0.28200
H1686       H  0.59452763  0.59007744  0.47764450     0.28200
H1687       H  0.62033573  0.49222863  0.94340873     0.18800
H1688       H  0.62592486  0.50870450  0.56184632     0.18800
C1689       C  0.72872312  0.73419661  0.51324238    -0.07100
C1690       C  0.75079001  0.71251507  0.49679744    -0.18200
C1691       C  0.77544449  0.72922780  0.48048914     0.10100
C1692       C  0.77964724  0.76914245  0.98405682    -0.07000
C1693       C  0.75844268  0.79051215  0.00203979    -0.18200
C1694       C  0.73332646  0.77370531  0.01748377     0.10200
S1695       S  0.80098913  0.69869640  0.45862829    -0.33200
S1696       S  0.70911272  0.80317485  0.04195824    -0.33200
H1697       H  0.70361602  0.77578952  0.06562838     0.28200
H1698       H  0.80592551  0.72401731  0.43333939     0.28200
H1699       H  0.74828466  0.68217204  0.49562050     0.18800
H1700       H  0.76207337  0.82050191  0.00520312     0.18800
C1701       C  0.72326635  0.60234336  0.60851019    -0.07100
C1702       C  0.75139492  0.59808093  0.59197111    -0.18200
C1703       C  0.77981635  0.59634517  0.60798255     0.10100
C1704       C  0.78088773  0.60017178  0.64170354    -0.07000
C1705       C  0.75265917  0.60112407  0.65844093    -0.18200
C1706       C  0.72401916  0.60190638  0.64248891     0.10200
S1707       S  0.81372071  0.58926958  0.58364623    -0.33200
S1708       S  0.68903262  0.60281060  0.66630499    -0.33200
H1709       H  0.70303814  0.60097256  0.69656650     0.28200
H1710       H  0.82825626  0.56559357  0.60589979     0.28200
H1711       H  0.75151289  0.59715581  0.56609181     0.12400
H1712       H  0.75303567  0.60316169  0.68423720     0.18800
C1713       C  0.53653095  0.67484957  0.56566404    -0.07100
C1714       C  0.52153174  0.69879056  0.54404398    -0.18200
C1715       C  0.48925770  0.69882533  0.54138243     0.10100
C1716       C  0.47130881  0.67515521  0.56141548    -0.07000
C1717       C  0.48634944  0.65189241  0.58345397    -0.18200
C1718       C  0.51847170  0.65167444  0.58605307     0.10200
S1719       S  0.47271317  0.72749595  0.51042382    -0.33200
S1720       S  0.53451545  0.62185713  0.61663185    -0.33200
H1721       H  0.55859894  0.64670258  0.62495953     0.28200
H1722       H  0.45179281  0.69945666  0.50028597     0.28200
H1723       H  0.53508596  0.71634904  0.52802370     0.18800
H1724       H  0.47288714  0.63407053  0.59935302     0.18800
C1725       C  0.62669105  0.96264273  0.76260931    -0.07100
C1726       C  0.62044973  0.99393843  0.78202419    -0.18200
C1727       C  0.61856950  0.03024046  0.76905503     0.10100
C1728       C  0.62463555  0.03603370  0.73609396    -0.07000
C1729       C  0.62725071  0.00445106  0.71622961    -0.18200
C1730       C  0.62742704  0.96797388  0.72889999     0.10200
S1731       S  0.60856065  0.06800025  0.79588665    -0.33200
S1732       S  0.62899387  0.92977736  0.70048971    -0.33200
H1733       H  0.60983793  0.90559065  0.71855011     0.28200
H1734       H  0.59381162  0.08983224  0.77244787     0.28200
H1735       H  0.61818778  0.99046185  0.80764522     0.18800
H1736       H  0.63057526  0.00815716  0.69074327     0.18800
C1737       C  0.78007985  0.73596351  0.73106516    -0.07100
C1738       C  0.78613056  0.76114172  0.75616898    -0.18200
C1739       C  0.76222129  0.77583631  0.77465320     0.10100
C1740       C  0.73122622  0.76578135  0.76760734    -0.07000
C1741       C  0.72521399  0.74085524  0.74228269    -0.18200
C1742       C  0.74911380  0.72635474  0.72370861     0.10200
S1743       S  0.77307237  0.80628915  0.80738856    -0.33200
S1744       S  0.73834831  0.69685132  0.69032630    -0.33200
H1745       H  0.76381866  0.70697262  0.67110309     0.28200
H1746       H  0.74920899  0.79394700  0.82786671     0.28200
H1747       H  0.80979882  0.76781184  0.76270091     0.18800
H1748       H  0.70157350  0.73411676  0.73570122     0.18800
C1749       C  0.72588567  0.90102971  0.86153397    -0.07100
C1750       C  0.75391227  0.90945844  0.84569951    -0.18200
C1751       C  0.78225747  0.91083095  0.86194996     0.10100
C1752       C  0.78341931  0.90231770  0.89492951    -0.07000
C1753       C  0.75532690  0.89755197  0.91143449    -0.18200
C1754       C  0.72667179  0.89725790  0.89541665     0.10200
S1755       S  0.81611871  0.92374914  0.83913304    -0.33200
S1756       S  0.69187507  0.89090171  0.91898842    -0.33200
H1757       H  0.70588195  0.89063414  0.94929783     0.28200
H1758       H  0.83115904  0.94200323  0.86468676     0.28200
H1759       H  0.75405225  0.91405470  0.82011152     0.18800
H1760       H  0.75593652  0.89191040  0.93684011     0.18800
C1761       C  0.63703112  0.76732763  0.89581440    -0.07100
C1762       C  0.60893545  0.75469154  0.90890729    -0.18200
C1763       C  0.60823278  0.72721019  0.93290024     0.10100
C1764       C  0.63625659  0.71323955  0.94540349    -0.07000
C1765       C  0.66440311  0.72593685  0.93211364    -0.18200
C1766       C  0.66501026  0.75263556  0.90737668     0.10200
S1767       S  0.57072288  0.71038539  0.94572486    -0.33200
S1768       S  0.70161444  0.76930333  0.89166666    -0.33200
H1769       H  0.72065751  0.74876534  0.91244333     0.28200
H1770       H  0.58063913  0.67376856  0.95307802     0.28200
H1771       H  0.58771044  0.76511730  0.89990909     0.18800
H1772       H  0.68592407  0.71625582  0.94205034     0.18800
C1773       C  0.63976698  0.78933046  0.69640477    -0.07100
C1774       C  0.61360496  0.76608213  0.69126783    -0.18200
C1775       C  0.61149397  0.74163632  0.66509500     0.10100
C1776       C  0.63636474  0.73911297  0.64335227    -0.07000
C1777       C  0.66197191  0.76324891  0.64753064    -0.18200
C1778       C  0.66383099  0.78846529  0.67329993     0.10200
S1779       S  0.57588718  0.71559399  0.66031294    -0.33200
S1780       S  0.69777193  0.81808330  0.67508265    -0.33200
H1781       H  0.68071629  0.85119961  0.67987568     0.28200
H1782       H  0.57455028  0.72018330  0.62696162     0.28200
H1783       H  0.59446997  0.76648982  0.70801311     0.18800
H1784       H  0.68083970  0.76248082  0.63044829     0.18800
C1785       C  0.38360066  0.03854968  0.73522774    -0.07100
C1786       C  0.38944736  0.00743047  0.71550642    -0.18200
C1787       C  0.39189551  0.97112315  0.72820264     0.10100
C1788       C  0.38715139  0.96518694  0.76138083    -0.07000
C1789       C  0.38538848  0.99667131  0.78147528    -0.18200
C1790       C  0.38410522  0.03328228  0.76893704     0.10200
S1791       S  0.40042591  0.93359717  0.70055959    -0.33200
S1792       S  0.38273874  0.07252561  0.79655801    -0.33200
H1793       H  0.38385676  0.05157649  0.82503637     0.28200
H1794       H  0.41568563  0.91108590  0.72308359     0.28200
H1795       H  0.39078093  0.01101117  0.68982660     0.18800
H1796       H  0.38301547  0.99247244  0.80698022     0.18800
C1797       C  0.37359186  0.71528527  0.94406517    -0.07100
C1798       C  0.39427572  0.74620255  0.94245095    -0.18200
C1799       C  0.39554816  0.77021696  0.91590586     0.10100
C1800       C  0.37488930  0.76461792  0.89014538    -0.07000
C1801       C  0.35486002  0.73314233  0.89122835    -0.18200
C1802       C  0.35438621  0.70825449  0.91728623     0.10200
S1803       S  0.42499724  0.80642324  0.91613704    -0.33200
S1804       S  0.32911614  0.66786788  0.91422572    -0.33200
H1805       H  0.35110049  0.64264907  0.92637826     0.28200
H1806       H  0.43462336  0.79948288  0.88452709     0.28200
H1807       H  0.40967383  0.75218485  0.96223566     0.18800
H1808       H  0.33942560  0.72756544  0.87137731     0.18800
C1809       C  0.37181861  0.73661568  0.64096935    -0.07100
C1810       C  0.39983006  0.75051626  0.65324830    -0.18200
C1811       C  0.40033313  0.77709865  0.67806289     0.10100
C1812       C  0.37216684  0.78977573  0.69146730    -0.07000
C1813       C  0.34416566  0.77635154  0.67854053    -0.18200
C1814       C  0.34371574  0.74982305  0.65376664     0.10200
S1815       S  0.43759594  0.79450346  0.69090996    -0.33200
S1816       S  0.30654310  0.73268066  0.64036730    -0.33200
H1817       H  0.31662874  0.69660975  0.63150209     0.28200
H1818       H  0.42710403  0.83049301  0.69958450     0.28200
H1819       H  0.42147089  0.74145352  0.64275451     0.18800
H1820       H  0.32237278  0.78489597  0.68902078     0.18800
C1821       C  0.47289792  0.82952599  0.80688562    -0.07100
C1822       C  0.48812367  0.79810386  0.81937339    -0.18200
C1823       C  0.52040643  0.79722670  0.82165423     0.10100
C1824       C  0.53828489  0.82828484  0.81080243    -0.07000
C1825       C  0.52299528  0.85917646  0.79731925    -0.18200
C1826       C  0.49073584  0.85983455  0.79471321     0.10200
S1827       S  0.53700355  0.75691484  0.84089737    -0.33200
S1828       S  0.47386756  0.89923961  0.77416561    -0.33200
H1829       H  0.45005481  0.87794147  0.75989759     0.28200
H1830       H  0.55844909  0.77875117  0.85789971     0.28200
H1831       H  0.47470769  0.77470706  0.82880771     0.18800
H1832       H  0.53634437  0.88272444  0.78805893     0.18800
C1833       C  0.23020430  0.73558446  0.72713743    -0.07100
C1834       C  0.25379344  0.71363500  0.74070124    -0.18200
C1835       C  0.27805383  0.72987822  0.75780179     0.10100
C1836       C  0.27961560  0.76932384  0.76084700    -0.07000
C1837       C  0.25604507  0.79131709  0.74720331    -0.18200
C1838       C  0.23170036  0.77502680  0.73018013     0.10200
S1839       S  0.30516581  0.69843561  0.77634492    -0.33200
S1840       S  0.20432336  0.80628550  0.71181257    -0.33200
H1841       H  0.20085330  0.78454051  0.68389472     0.28200
H1842       H  0.30772858  0.71962967  0.80466943     0.28200
H1843       H  0.25268914  0.68319662  0.73936191     0.18800
H1844       H  0.25714423  0.82175318  0.74855327     0.18800
C1845       C  0.28462637  0.90054467  0.85257757    -0.07100
C1846       C  0.28578495  0.90175103  0.88621276    -0.18200
C1847       C  0.25878787  0.90134581  0.90522874     0.10100
C1848       C  0.22927139  0.89880056  0.89042936    -0.07000
C1849       C  0.22817478  0.90041612  0.85682568    -0.18200
C1850       C  0.25504538  0.90192779  0.83796819     0.10200
S1851       S  0.26314947  0.90181882  0.94821167    -0.33200
S1852       S  0.24939976  0.90326552  0.79534877    -0.33200
H1853       H  0.26809215  0.93556145  0.79142262     0.28200
H1854       H  0.29513872  0.90922237  0.94902079     0.28200
H1855       H  0.30812510  0.90150513  0.89780692     0.18800
H1856       H  0.20600193  0.89956896  0.84482466     0.18800
loop_ 
_geom_bond_atom_site_label_1 
_geom_bond_atom_site_label_2 
_geom_bond_distance 
_geom_bond_site_symmetry_2 
_ccdc_geom_bond_type 
Fe1          O17   2.071       .  S
Fe1           O7   2.117       .  S
Fe1          O14   2.125       .  S
Fe1           O6   2.055       .  S
Fe1          O12   1.929       .  S
Fe2           O5   2.019       .  S
Fe2           O9   2.094       .  S
Fe2          O13   2.030       .  S
Fe2          O18   2.100       .  S
Fe2          O12   1.934       .  S
Fe3          O21   2.097       .  S
Fe3           O8   2.035       .  S
Fe3          O15   2.041       .  S
Fe3           O4   2.087       .  S
Fe3          O12   1.933       .  S
O4           C11   1.275       .  A
O5           C19   1.262       .  A
O6           C11   1.270       .  A
O7           C10   1.281       .  A
O8           C20   1.262       .  A
O9           C22   1.272       .  A
C10          O15   1.267       .  A
C10         C872   1.492       .  S
C11         C893   1.478       .  S
O13          C16   1.265       .  A
O14          C16   1.284       .  A
C16         C860   1.490       .  S
O17          C22   1.271       .  A
O18          C20   1.275       .  A
C19          O21   1.277       .  A
C19         C908   1.467       .  S
C20         C884   1.481       .  S
C22         C917   1.502       .  S
Fe23         O39   2.131       .  S
Fe23         O29   2.054       .  S
Fe23         O36   2.066       .  S
Fe23         O28   2.122       .  S
Fe23         O34   1.931       .  S
Fe24         O27   2.105       .  S
Fe24         O31   2.030       .  S
Fe24         O35   2.096       .  S
Fe24         O40   2.015       .  S
Fe24         O34   1.934       .  S
Fe25         O43   2.041       .  S
Fe25         O30   2.103       .  S
Fe25         O37   2.094       .  S
Fe25         O26   2.046       .  S
Fe25         O34   1.937       .  S
O26          C33   1.267       .  A
O27          C41   1.275       .  A
O28          C33   1.281       .  A
O29          C32   1.270       .  A
O30          C42   1.277       .  A
O31          C44   1.265       .  A
C32          O37   1.276       .  A
C32         C896   1.483       .  S
C33         C833   1.481       .  S
O35          C38   1.275       .  A
O36          C38   1.267       .  A
C38         C821   1.506       .  S
O39          C44   1.285       .  A
O40          C42   1.259       .  A
C41          O43   1.266       .  A
C41         C845   1.495       .  S
C42         C812   1.469       .  S
C44         C797   1.495       .  S
Fe45         O61   2.056       .  S
Fe45         O51   2.118       .  S
Fe45         O58   2.129       .  S
Fe45         O50   2.041       .  S
Fe45         O56   1.924       .  S
Fe46         O49   2.017       .  S
Fe46         O53   2.100       .  S
Fe46         O57   2.031       .  S
Fe46        O990   2.109   1_554  S
Fe46         O56   1.930       .  S
Fe47         O65   2.100       .  S
Fe47         O59   2.033       .  S
Fe47         O48   2.092       .  S
Fe47        O980   2.035   1_554  S
Fe47         O56   1.933       .  S
O48          C55   1.275       .  A
O49          C63   1.261       .  A
O50          C55   1.267       .  A
O51          C54   1.281       .  A
O52        Fe975   2.039       .  S
O52          C64   1.265       .  A
O53          C66   1.276       .  A
C54          O59   1.265       .  A
C54         C848   1.481       .  S
C55         C785   1.478       .  S
O57          C60   1.266       .  A
O58          C60   1.285       .  A
C60         C752   1.493       .  S
O61          C66   1.266       .  A
O62        Fe974   2.114       .  S
O62          C64   1.278       .  A
C63          O65   1.276       .  A
C63         C761   1.466       .  S
C64         C836   1.486       .  S
C66         C773   1.501       .  S
Fe67         O83   2.121       .  S
Fe67         O73   2.045       .  S
Fe67         O80   2.065       .  S
Fe67         O72   2.108       .  S
Fe67         O78   1.926       .  S
Fe68         O75   2.032       .  S
Fe68         O79   2.099       .  S
Fe68         O84   2.012       .  S
Fe68        O999   2.121   1_554  S
Fe68         O78   1.924       .  S
Fe69         O74   2.098       .  S
Fe69         O81   2.092       .  S
Fe69         O70   2.035       .  S
Fe69       O1015   2.040   1_554  S
Fe69         O78   1.929       .  S
O70          C77   1.264       .  A
O71        Fe996   2.113       .  S
O71          C85   1.276       .  A
O72          C77   1.277       .  A
O73          C76   1.271       .  A
O74          C86   1.276       .  A
O75          C88   1.267       .  A
C76          O81   1.276       .  A
C76         C788   1.479       .  S
C77         C881   1.470       .  S
O79          C82   1.275       .  A
O80          C82   1.269       .  A
C82         C737   1.498       .  S
O83          C88   1.283       .  A
O84          C86   1.256       .  A
C85          O87   1.265       .  A
C85         C869   1.499       .  S
C86         C728   1.461       .  S
O87        Fe997   2.043       .  S
C88         C716   1.493       .  S
Fe89        O105   2.063       .  S
Fe89         O95   2.109       .  S
Fe89        O102   2.120       .  S
Fe89         O94   2.053       .  S
Fe89        O100   1.929       .  S
Fe90         O93   2.018       .  S
Fe90         O97   2.099       .  S
Fe90        O101   2.039       .  S
Fe90       O1034   2.112       .  S
Fe90        O100   1.932       .  S
Fe91        O109   2.103       .  S
Fe91        O103   2.047       .  S
Fe91         O92   2.099       .  S
Fe91       O1024   2.042       .  S
Fe91        O100   1.936       .  S
O92          C99   1.276       .  A
O93         C107   1.258       .  A
O94          C99   1.272       .  A
O95          C98   1.278       .  A
O96       Fe1019   2.039       .  S
O96         C108   1.265   1_556  A
O97         C110   1.273       .  A
C98         O103   1.266       .  A
C98         C677   1.475       .  S
C99         C701   1.497       .  S
O101        C104   1.268       .  A
O102        C104   1.282       .  A
C104        C665   1.494       .  S
O105        C110   1.270       .  A
O106      Fe1018   2.111   1_554  S
O106        C108   1.277       .  A
C107        O109   1.277       .  A
C107        C725   1.469       .  S
C108        C689   1.494       .  S
C110        C920   1.508       .  S
Fe111       O127   2.131       .  S
Fe111       O117   2.049       .  S
Fe111       O124   2.058       .  S
Fe111       O116   2.111       .  S
Fe111       O122   1.925       .  S
Fe112       O119   2.037       .  S
Fe112       O123   2.101       .  S
Fe112       O128   2.017       .  S
Fe112      O1043   2.115       .  S
Fe112       O122   1.930       .  S
Fe113       O118   2.111       .  S
Fe113       O125   2.102       .  S
Fe113       O114   2.034       .  S
Fe113      O1059   2.034       .  S
Fe113       O122   1.929       .  S
O114        C121   1.264       .  A
O115      Fe1040   2.108   1_554  S
O115        C129   1.274       .  A
O116        C121   1.279       .  A
O117        C120   1.269       .  A
O118        C130   1.279       .  A
O119        C132   1.269       .  A
C120        O125   1.279       .  A
C120        C704   1.496       .  S
C121        C641   1.475       .  S
O123        C126   1.275       .  A
O124        C126   1.266       .  A
C126        C824   1.499       .  S
O127        C132   1.284       .  A
O128        C130   1.261       .  A
C129        O131   1.262   1_554  A
C129        C653   1.492       .  S
C130        C764   1.473       .  S
O131      Fe1041   2.039       .  S
C132        C629   1.501       .  S
Fe133       O149   2.060       .  S
Fe133       O139   2.107       .  S
Fe133       O146   2.119       .  S
Fe133       O138   2.055       .  S
Fe133       O144   1.934       .  S
Fe134       O137   2.024       .  S
Fe134       O141   2.099       .  S
Fe134       O145   2.041       .  S
Fe134       O150   2.111       .  S
Fe134       O144   1.940       .  S
Fe135       O153   2.098       .  S
Fe135       O140   2.028       .  S
Fe135       O147   2.034       .  S
Fe135       O136   2.091       .  S
Fe135       O144   1.935       .  S
O136        C143   1.277       .  A
O137        C151   1.262       .  A
O138        C143   1.270       .  A
O139        C142   1.277       .  A
O140        C152   1.260       .  A
O141        C154   1.275       .  A
C142        O147   1.265       .  A
C142        C656   1.494       .  S
C143        C617   1.492       .  S
O145        C148   1.269       .  A
O146        C148   1.282       .  A
C148        C605   1.499       .  S
O149        C154   1.267       .  A
O150        C152   1.277       .  A
C151        O153   1.277       .  A
C151        C809   1.467       .  S
C152        C644   1.491       .  S
C154        C776   1.500       .  S
Fe155       O171   2.131       .  S
Fe155       O161   2.061       .  S
Fe155       O168   2.065       .  S
Fe155       O160   2.113       .  S
Fe155       O166   1.930       .  S
Fe156       O159   2.120       .  S
Fe156       O163   2.043       .  S
Fe156       O167   2.100       .  S
Fe156       O172   2.018       .  S
Fe156       O166   1.937       .  S
Fe157       O175   2.031       .  S
Fe157       O162   2.103       .  S
Fe157       O169   2.088       .  S
Fe157       O158   2.030       .  S
Fe157       O166   1.935       .  S
O158        C165   1.265       .  A
O159        C173   1.278       .  A
O160        C165   1.280       .  A
O161        C164   1.273       .  A
O162        C174   1.277       .  A
O163        C176   1.270       .  A
C164        O169   1.275       .  A
C164        C620   1.493       .  S
C165        C692   1.490       .  S
O167        C170   1.274       .  A
O168        C170   1.266       .  A
C170        C740   1.509       .  S
O171        C176   1.285       .  A
O172        C174   1.260       .  A
C173        O175   1.262       .  A
C173        C680   1.488       .  S
C174        C905   1.466       .  S
C176        C593   1.502       .  S
Fe177       O193   2.063       .  S
Fe177       O183   2.119       .  S
Fe177       O190   2.137       .  S
Fe177       O182   2.054       .  S
Fe177       O188   1.934       .  S
Fe178       O181   2.019       .  S
Fe178       O185   2.089       .  S
Fe178       O189   2.034       .  S
Fe178      O1122   2.101       .  S
Fe178       O188   1.939       .  S
Fe179       O197   2.096       .  S
Fe179       O191   2.040       .  S
Fe179       O180   2.080       .  S
Fe179      O1112   2.037       .  S
Fe179       O188   1.941       .  S
O180        C187   1.272       .  A
O181        C195   1.263       .  A
O182        C187   1.269       .  A
O183        C186   1.284       .  A
O184      Fe1107   2.039   1_554  S
O184        C196   1.263       .  A
O185        C198   1.270       .  A
C186        O191   1.266       .  A
C186        C557   1.494       .  S
C187        C584   1.479       .  S
O189        C192   1.267       .  A
O190        C192   1.288       .  A
C192        C749   1.501       .  S
O193        C198   1.266       .  A
O194      Fe1106   2.109   1_554  S
O194        C196   1.275       .  A
C195        O197   1.274       .  A
C195        C533   1.471       .  S
C196        C569   1.495       .  S
C198        C545   1.498       .  S
Fe199       O215   2.123       .  S
Fe199       O205   2.048       .  S
Fe199       O212   2.060       .  S
Fe199       O204   2.115       .  S
Fe199       O210   1.925       .  S
Fe200       O207   2.037       .  S
Fe200       O211   2.097       .  S
Fe200       O216   2.018       .  S
Fe200      O1131   2.108       .  S
Fe200       O210   1.936       .  S
Fe201       O206   2.102       .  S
Fe201       O213   2.086       .  S
Fe201       O202   2.039       .  S
Fe201      O1147   2.033       .  S
Fe201       O210   1.931       .  S
O202        C209   1.266       .  A
O203      Fe1128   2.124   1_554  S
O203        C217   1.278       .  A
O204        C209   1.281       .  A
O205        C208   1.268       .  A
O206        C218   1.277       .  A
O207        C220   1.268       .  A
C208        O213   1.274       .  A
C208        C581   1.478       .  S
C209        C485   1.481       .  S
O211        C214   1.274       .  A
O212        C214   1.267       .  A
C214        C524   1.499       .  S
O215        C220   1.284       .  A
O216        C218   1.262       .  A
C217        O219   1.262   1_554  A
C217        C497   1.494       .  S
C218        C512   1.464       .  S
O219      Fe1129   2.036       .  S
C220        C713   1.493       .  S
Fe221       O237   2.057       .  S
Fe221       O227   2.115       .  S
Fe221       O234   2.132       .  S
Fe221       O226   2.041       .  S
Fe221       O232   1.928       .  S
Fe222       O225   2.016       .  S
Fe222       O229   2.092       .  S
Fe222       O233   2.023       .  S
Fe222       O238   2.109       .  S
Fe222       O232   1.930       .  S
Fe223       O241   2.108       .  S
Fe223       O228   2.044       .  S
Fe223       O235   2.044       .  S
Fe223       O224   2.095       .  S
Fe223       O232   1.935       .  S
O224        C231   1.277       .  A
O225        C239   1.260       .  A
O226        C231   1.266       .  A
O227        C230   1.280       .  A
O228        C240   1.266       .  A
O229        C242   1.272       .  A
C230        O235   1.268       .  A
C230        C500   1.501       .  S
C231        C449   1.478       .  S
O233        C236   1.265       .  A
O234        C236   1.287       .  A
C236        C857   1.496       .  S
O237        C242   1.264       .  A
O238        C240   1.275       .  A
C239        O241   1.278       .  A
C239        C473   1.471       .  S
C240        C488   1.498       .  S
C242        C461   1.498       .  S
Fe243       O259   2.132       .  S
Fe243       O249   2.054       .  S
Fe243       O256   2.060       .  S
Fe243       O248   2.120       .  S
Fe243       O254   1.927       .  S
Fe244       O247   2.137       .  S
Fe244       O251   2.036       .  S
Fe244       O255   2.105       .  S
Fe244       O260   2.014       .  S
Fe244       O254   1.940       .  S
Fe245       O263   2.032       .  S
Fe245       O250   2.104       .  S
Fe245       O257   2.081       .  S
Fe245       O246   2.031       .  S
Fe245       O254   1.931       .  S
O246        C253   1.267       .  A
O247        C261   1.279       .  A
O248        C253   1.283       .  A
O249        C252   1.269       .  A
O250        C262   1.278       .  A
O251        C264   1.270       .  A
C252        O257   1.272       .  A
C252        C452   1.480       .  S
C253        C572   1.488       .  S
O255        C258   1.276       .  A
O256        C258   1.265       .  A
C258        C425   1.508       .  S
O259        C264   1.287       .  A
O260        C262   1.260       .  A
C261        O263   1.257       .  A
C261        C560   1.500       .  S
C262        C440   1.462       .  S
C264        C800   1.496       .  S
Fe265       O281   2.052       .  S
Fe265       O271   2.118       .  S
Fe265       O278   2.123       .  S
Fe265       O270   2.053       .  S
Fe265       O276   1.928       .  S
Fe266       O269   2.017       .  S
Fe266       O273   2.100       .  S
Fe266       O277   2.039       .  S
Fe266       O282   2.121       .  S
Fe266       O276   1.934       .  S
Fe267       O285   2.098       .  S
Fe267       O272   2.028       .  S
Fe267       O279   2.032       .  S
Fe267       O268   2.088       .  S
Fe267       O276   1.933       .  S
O268        C275   1.274       .  A
O269        C283   1.259       .  A
O270        C275   1.269       .  A
O271        C274   1.282       .  A
O272        C284   1.259       .  A
O273        C286   1.274       .  A
C274        O279   1.264       .  A
C274        C404   1.485       .  S
C275        C413   1.483       .  S
O277        C280   1.269       .  A
O278        C280   1.283       .  A
C280        C608   1.499       .  S
O281        C286   1.268       .  A
O282        C284   1.279       .  A
C283        O285   1.276       .  A
C283        C437   1.459       .  S
C284        C389   1.497       .  S
C286        C548   1.505       .  S
Fe287       O303   2.134       .  S
Fe287       O293   2.054       .  S
Fe287       O300   2.055       .  S
Fe287       O292   2.119       .  S
Fe287       O298   1.929       .  S
Fe288       O291   2.123       .  S
Fe288       O295   2.040       .  S
Fe288       O299   2.102       .  S
Fe288       O304   2.018       .  S
Fe288       O298   1.932       .  S
Fe289       O307   2.043       .  S
Fe289       O294   2.106       .  S
Fe289       O301   2.093       .  S
Fe289       O290   2.046       .  S
Fe289       O298   1.936       .  S
O290        C297   1.266       .  A
O291        C305   1.279       .  A
O292        C297   1.281       .  A
O293        C296   1.271       .  A
O294        C306   1.277       .  A
O295        C308   1.270       .  A
C296        O301   1.276       .  A
C296        C416   1.486       .  S
C297        C380   1.479       .  S
O299        C302   1.275       .  A
O300        C302   1.265       .  A
C302        C521   1.502       .  S
O303        C308   1.285       .  A
O304        C306   1.259       .  A
C305        O307   1.266       .  A
C305        C365   1.503       .  S
C306        C476   1.472       .  S
C308        C596   1.505       .  S
Fe309       O325   2.053       .  S
Fe309       O315   2.118       .  S
Fe309       O322   2.135       .  S
Fe309       O314   2.047       .  S
Fe309       O320   1.928       .  S
Fe310       O313   2.014       .  S
Fe310       O317   2.100       .  S
Fe310       O321   2.032       .  S
Fe310      O1254   2.113   1_554  S
Fe310       O320   1.934       .  S
Fe311       O329   2.101       .  S
Fe311       O323   2.044       .  S
Fe311       O312   2.094       .  S
Fe311      O1244   2.046   1_554  S
Fe311       O320   1.934       .  S
O312        C319   1.276       .  A
O313        C327   1.261       .  A
O314        C319   1.270       .  A
O315        C318   1.281       .  A
O316      Fe1239   2.048       .  S
O316        C328   1.263       .  A
O317        C330   1.275       .  A
C318        O323   1.267       .  A
C318        C368   1.495       .  S
C319        C353   1.484       .  S
O321        C324   1.268       .  A
O322        C324   1.285       .  A
C324        C668   1.504       .  S
O325        C330   1.264       .  A
O326      Fe1238   2.114       .  S
O326        C328   1.276       .  A
C327        O329   1.278       .  A
C327        C509   1.461       .  S
C328        C377   1.484       .  S
C330        C464   1.500       .  S
Fe331       O347   2.122       .  S
Fe331       O337   2.052       .  S
Fe331       O344   2.058       .  S
Fe331       O336   2.110       .  S
Fe331       O342   1.929       .  S
Fe332       O339   2.038       .  S
Fe332       O343   2.102       .  S
Fe332       O348   2.024       .  S
Fe332      O1263   2.103   1_554  S
Fe332       O342   1.934       .  S
Fe333       O338   2.091       .  S
Fe333       O345   2.084       .  S
Fe333       O334   2.030       .  S
Fe333      O1279   2.034   1_554  S
Fe333       O342   1.935       .  S
O334        C341   1.263       .  A
O335      Fe1260   2.121       .  S
O335        C349   1.279       .  A
O336        C341   1.280       .  A
O337        C340   1.269       .  A
O338        C350   1.274       .  A
O339        C352   1.268       .  A
C340        O345   1.274       .  A
C340        C356   1.482       .  S
C341        C392   1.480       .  S
O343        C346   1.275       .  A
O344        C346   1.266       .  A
C346        C428   1.500       .  S
O347        C352   1.282       .  A
O348        C350   1.264       .  A
C349        O351   1.259       .  A
C349        C401   1.499       .  S
C350        C536   1.472       .  S
O351      Fe1261   2.031       .  S
C352        C632   1.500       .  S
C353        C354   1.405       .  A
C353        C358   1.415       .  A
C354        C355   1.397   1_455  A
C354        H363   1.084       .  S
C355        C356   1.415       .  A
C355        S359   1.804       .  S
C356        C357   1.405       .  A
C357        C358   1.400   1_655  A
C357       H1292   1.084       .  S
C358       S1288   1.801       .  S
S359        H362   1.408       .  S
S360       C1286   1.800       .  S
S360        H361   1.405       .  S
H364       C1285   1.084       .  S
C365        C366   1.413       .  A
C365        C370   1.418       .  A
C366        C367   1.403       .  A
C366        H375   1.083       .  S
C367        C368   1.413       .  A
C367        S371   1.803       .  S
C368        C369   1.410       .  A
C369        C370   1.405       .  A
C369        H376   1.084       .  S
C370        S372   1.802       .  S
S371        H374   1.408       .  S
S372        H373   1.408       .  S
C377        C378   1.406       .  A
C377        C382   1.413       .  A
C378        C379   1.403       .  A
C378        H387   1.084       .  S
C379        C380   1.414       .  A
C379        S383   1.806       .  S
C380        C381   1.404       .  A
C381        C382   1.404       .  A
C381        H388   1.083       .  S
C382        S384   1.802       .  S
S383        H386   1.402       .  S
S384        H385   1.407       .  S
C389        C390   1.407       .  A
C389        C394   1.427       .  A
C390        C391   1.404       .  A
C390        H399   1.082       .  S
C391        C392   1.414       .  A
C391        S395   1.810       .  S
C392        C393   1.397       .  A
C393        C394   1.403       .  A
C393        H400   1.083       .  S
C394        S396   1.812       .  S
S395        H398   1.406       .  S
S396        H397   1.407       .  S
C401        C402   1.408       .  A
C401        C406   1.428       .  A
C402        C403   1.405       .  A
C402        H411   1.082       .  S
C403        C404   1.415       .  A
C403        S407   1.809       .  S
C404        C405   1.398       .  A
C405        C406   1.404       .  A
C405        H412   1.082       .  S
C406        S408   1.813       .  S
S407        H410   1.406       .  S
S408        H409   1.406       .  S
C413        C414   1.405       .  A
C413        C418   1.415       .  A
C414        C415   1.405   1_655  A
C414        H423   1.083       .  S
C415        C416   1.416       .  A
C415        S419   1.808       .  S
C416        C417   1.405       .  A
C417        C418   1.399   1_455  A
C417        H424   1.084       .  S
C418        S420   1.805       .  S
S419        H422   1.407       .  S
S420        H421   1.408       .  S
C425        C426   1.409       .  A
C425        C430   1.425       .  A
C426        C427   1.404       .  A
C426        H435   1.083       .  S
C427        C428   1.418       .  A
C427        S431   1.803       .  S
C428        C429   1.406       .  A
C429        C430   1.409       .  A
C429        H436   1.082       .  S
C430        S432   1.811       .  S
S431        H434   1.408       .  S
S432        H433   1.407       .  S
C437        C438   1.402       .  A
C437        C442   1.412       .  A
C438        C439   1.397       .  A
C438        H447   1.083       .  S
C439        C440   1.412       .  A
C439        S443   1.810       .  S
C440        C441   1.402       .  A
C441        C442   1.392       .  A
C441        H448   1.085       .  S
C442        S444   1.806       .  S
S443        H446   1.407       .  S
S444        H445   1.405       .  S
C449        C450   1.402       .  A
C449        C454   1.416       .  A
C450        C451   1.399       .  A
C450        H459   1.084       .  S
C451        C452   1.415       .  A
C451        S455   1.799       .  S
C452        C453   1.403       .  A
C453        C454   1.397       .  A
C453        H460   1.084       .  S
C454        S456   1.804       .  S
S455        H458   1.407       .  S
S456        H457   1.406       .  S
C461        C462   1.406       .  A
C461        C466   1.419       .  A
C462        C463   1.401       .  A
C462        H471   1.084       .  S
C463        C464   1.420       .  A
C463        S467   1.803       .  S
C464        C465   1.408       .  A
C465        C466   1.408       .  A
C465        H472   1.082       .  S
C466        S468   1.810       .  S
S467        H470   1.408       .  S
S468        H469   1.406       .  S
C473        C474   1.411       .  A
C473        C478   1.406       .  A
C474        C475   1.394       .  A
C474        H483   1.084       .  S
C475        C476   1.407       .  A
C475        S479   1.803       .  S
C476        C477   1.411       .  A
C477        C478   1.393       .  A
C477        H484   1.084       .  S
C478        S480   1.803       .  S
S479        H482   1.408       .  S
S480        H481   1.407       .  S
C485        C486   1.404       .  A
C485        C490   1.410       .  A
C486        C487   1.402       .  A
C486        H495   1.084       .  S
C487        C488   1.421       .  A
C487        S491   1.802       .  S
C488        C489   1.412       .  A
C489        C490   1.401       .  A
C489        H496   1.083       .  S
C490        S492   1.803       .  S
S491        H494   1.408       .  S
S492        H493   1.406       .  S
C497        C498   1.410       .  A
C497        C502   1.412       .  A
C498        C499   1.400       .  A
C498        H507   1.084       .  S
C499        C500   1.416       .  A
C499        S503   1.800       .  S
C500        C501   1.415       .  A
C501        C502   1.405       .  A
C501        H508   1.083       .  S
C502        S504   1.802       .  S
S503        H506   1.408       .  S
S504        H505   1.407       .  S
C509        C510   1.410   1_554  A
C509        C514   1.404       .  A
C510       C1439   1.393       .  A
C510        H519   1.084       .  S
C511        C512   1.405       .  A
C511       C1438   1.393       .  A
C511        S515   1.804       .  S
C512        C513   1.409       .  A
C513       C1442   1.392       .  A
C513        H520   1.084       .  S
C514       C1441   1.391       .  A
C514        S516   1.804       .  S
S515        H518   1.407       .  S
S516        H517   1.407       .  S
C521        C522   1.408       .  A
C521        C526   1.421       .  A
C522        C523   1.409       .  A
C522        H531   1.082       .  S
C523        C524   1.419       .  A
C523        S527   1.809       .  S
C524        C525   1.406       .  A
C525        C526   1.402       .  A
C525        H532   1.084       .  S
C526        S528   1.803       .  S
S527        H530   1.406       .  S
S528        H529   1.408       .  S
C533        C534   1.405       .  A
C533        C538   1.413       .  A
C534       C1463   1.391       .  A
C534        H543   1.084       .  S
C535        C536   1.412   1_556  A
C535       C1462   1.391       .  A
C535        S539   1.801       .  S
C536        C537   1.406       .  A
C537       C1466   1.393       .  A
C537        H544   1.085       .  S
C538       C1465   1.394       .  A
C538        S540   1.801       .  S
S539        H542   1.407   1_556  S
S540        H541   1.407       .  S
C545        C546   1.408       .  A
C545        C550   1.418       .  A
C546        C547   1.405       .  A
C546        H555   1.084       .  S
C547        C548   1.419       .  A
C547        S551   1.801       .  S
C548        C549   1.410       .  A
C549        C550   1.405       .  A
C549        H556   1.082       .  S
C550        S552   1.810       .  S
S551        H554   1.408       .  S
S552        H553   1.407       .  S
C557        C558   1.398       .  A
C557        C562   1.421       .  A
C558        C559   1.403       .  A
C558        H567   1.082       .  S
C559        C560   1.427       .  A
C559        S563   1.811       .  S
C560        C561   1.405       .  A
C561        C562   1.410       .  A
C561        H568   1.082       .  S
C562        S564   1.810       .  S
S563        H566   1.406       .  S
S564        H565   1.406       .  S
C569        C570   1.413       .  A
C569        C574   1.416       .  A
C570        C571   1.401       .  A
C570        H579   1.083       .  S
C571        C572   1.412       .  A
C571        S575   1.803       .  S
C572        C573   1.409       .  A
C573        C574   1.401       .  A
C573        H580   1.084       .  S
C574        S576   1.802       .  S
S575        H578   1.408       .  S
S576        H577   1.407       .  S
C581        C582   1.403       .  A
C581        C586   1.414       .  A
C582        C583   1.398       .  A
C582        H591   1.084       .  S
C583        C584   1.414       .  A
C583       S1515   1.802       .  S
C584        C585   1.404       .  A
C585        C586   1.402       .  A
C585        H592   1.083       .  S
C586        S588   1.809       .  S
S587       C1511   1.802       .  S
S587        H590   1.406       .  S
S588        H589   1.406       .  S
C593        C594   1.412       .  A
C593        C598   1.415       .  A
C594        C595   1.406       .  A
C594        H603   1.084       .  S
C595        C596   1.417       .  A
C595        S599   1.800       .  S
C596        C597   1.412       .  A
C597        C598   1.404       .  A
C597        H604   1.084       .  S
C598        S600   1.800       .  S
S599        H602   1.408       .  S
S600        H601   1.407       .  S
C605        C606   1.411       .  A
C605        C610   1.415       .  A
C606        C607   1.407       .  A
C606        H615   1.082       .  S
C607        C608   1.416       .  A
C607        S611   1.809       .  S
C608        C609   1.411       .  A
C609        C610   1.402       .  A
C609        H616   1.084       .  S
C610        S612   1.801       .  S
S611        H614   1.406       .  S
S612        H613   1.408       .  S
C617        C618   1.406       .  A
C617        C622   1.418       .  A
C618        C619   1.401   1_655  A
C618        H627   1.084       .  S
C619        C620   1.419       .  A
C619        S623   1.803       .  S
C620        C621   1.407       .  A
C621        C622   1.401   1_455  A
C621        H628   1.084       .  S
C622        S624   1.804       .  S
S623        H626   1.406       .  S
S624        H625   1.408       .  S
C629        C634   1.415       .  A
C629       C1558   1.413       .  A
C630        C631   1.403   1_565  A
C630       C1557   1.411   1_554  A
C630        H639   1.084       .  S
C631        C632   1.416       .  A
C631        S635   1.800       .  S
C632       C1561   1.413   1_554  A
C633        C634   1.403   1_545  A
C633       C1560   1.412       .  A
C633        H640   1.084       .  S
C634        S636   1.800   1_565  S
S635        H638   1.408       .  S
S636        H637   1.408   1_545  S
C641        C642   1.399       .  A
C641        C646   1.414       .  A
C642        C643   1.400       .  A
C642        H651   1.084       .  S
C643        C644   1.422       .  A
C643        S647   1.804       .  S
C644        C645   1.407       .  A
C645        C646   1.400       .  A
C645        H652   1.084       .  S
C646        S648   1.804       .  S
S647        H650   1.408       .  S
S648        H649   1.407       .  S
C653        C654   1.411       .  A
C653        C658   1.413       .  A
C654        C655   1.400       .  A
C654        H663   1.083       .  S
C655        C656   1.414       .  A
C655        S659   1.800       .  S
C656        C657   1.412       .  A
C657        C658   1.400       .  A
C657        H664   1.084       .  S
C658        S660   1.802       .  S
S659        H662   1.408       .  S
S660        H661   1.408       .  S
C665        C670   1.412       .  A
C665       C1594   1.411       .  A
C666        C667   1.409   1_565  A
C666       C1593   1.412   1_554  A
C666        H675   1.082       .  S
C667        C668   1.416       .  A
C667        S671   1.808       .  S
C668       C1597   1.413   1_554  A
C669        C670   1.403   1_545  A
C669       C1596   1.413       .  A
C669        H676   1.082       .  S
C670        S672   1.810       .  S
S671        H674   1.407   1_545  S
S672        H673   1.406   1_565  S
C677        C678   1.400       .  A
C677        C682   1.412       .  A
C678        C679   1.401       .  A
C678        H687   1.085       .  S
C679        C680   1.418       .  A
C679        S683   1.804       .  S
C680        C681   1.408       .  A
C681        C682   1.404       .  A
C681        H688   1.084       .  S
C682        S684   1.805       .  S
S683        H686   1.407       .  S
S684        H685   1.406       .  S
C689        C690   1.413       .  A
C689        C694   1.414       .  A
C690        C691   1.402       .  A
C690        H699   1.083       .  S
C691        C692   1.413       .  A
C691        S695   1.803       .  S
C692        C693   1.410       .  A
C693        C694   1.399       .  A
C693        H700   1.084       .  S
C694        S696   1.802       .  S
S695        H698   1.406       .  S
S696        H697   1.408       .  S
C701        C702   1.406       .  A
C701        C706   1.418       .  A
C702        C703   1.402   1_455  A
C702        H711   1.082       .  S
C703        C704   1.419       .  A
C703        S707   1.813       .  S
C704        C705   1.408       .  A
C705        C706   1.409   1_655  A
C705        H712   1.082       .  S
C706        S708   1.809       .  S
S707        H710   1.406   1_655  S
S708        H709   1.407       .  S
C713        C718   1.412       .  A
C713       C1642   1.411       .  A
C714        C715   1.399       .  A
C714       C1641   1.412   1_554  A
C714        H723   1.084       .  S
C715        C716   1.413       .  A
C715        S719   1.802       .  S
C716       C1645   1.411   1_554  A
C717        C718   1.398       .  A
C717       C1644   1.412       .  A
C717        H724   1.083       .  S
C718        S720   1.802       .  S
S719        H722   1.408       .  S
S720        H721   1.408       .  S
C725        C726   1.396       .  A
C725       C1658   1.420       .  A
C726        C727   1.396       .  A
C726        H735   1.083       .  S
C727       C1656   1.421       .  A
C727        S731   1.812       .  S
C728        C729   1.394       .  A
C728       C1655   1.419   1_554  A
C729        C730   1.394       .  A
C729        H736   1.083       .  S
C730       C1653   1.418   1_554  A
C730        S732   1.811       .  S
S731        H734   1.406       .  S
S732        H733   1.407       .  S
C737        C738   1.405       .  A
C737        C742   1.415       .  A
C738        C739   1.409       .  A
C738        H747   1.082       .  S
C739        C740   1.425       .  A
C739        S743   1.811       .  S
C740        C741   1.411       .  A
C741        C742   1.406       .  A
C741        H748   1.083       .  S
C742        S744   1.803       .  S
S743        H746   1.407       .  S
S744        H745   1.408       .  S
C749        C750   1.404       .  A
C749        C754   1.425       .  A
C750        C751   1.405       .  A
C750        H759   1.083       .  S
C751       C1680   1.421       .  A
C751        S755   1.804       .  S
C752        C753   1.401       .  A
C752       C1679   1.421   1_554  A
C753       C1682   1.403       .  A
C753        H760   1.084       .  S
C754       C1681   1.404       .  A
C754        S756   1.804       .  S
S755       H1686   1.408       .  S
S756        H757   1.408       .  S
H758       S1683   1.408       .  S
C761        C762   1.408   1_554  A
C761       C1694   1.405       .  A
C762        C763   1.392       .  A
C762        H771   1.084       .  S
C763       C1692   1.407       .  A
C763        S767   1.802       .  S
C764        C765   1.411       .  A
C764       C1691   1.407       .  A
C765        C766   1.393       .  A
C765        H772   1.084       .  S
C766       C1689   1.407       .  A
C766        S768   1.804       .  S
S767        H770   1.403       .  S
S768        H769   1.408       .  S
C773        C774   1.407       .  A
C773        C778   1.421       .  A
C774        C775   1.402       .  A
C774        H783   1.083       .  S
C775        C776   1.418       .  A
C775        S779   1.803       .  S
C776        C777   1.407       .  A
C777        C778   1.409       .  A
C777        H784   1.082       .  S
C778        S780   1.810       .  S
S779        H782   1.408       .  S
S780        H781   1.406       .  S
C785        C786   1.405       .  A
C785        C790   1.416       .  A
C786        C787   1.400       .  A
C786        H795   1.084       .  S
C787        C788   1.416       .  A
C787        S791   1.801       .  S
C788        C789   1.403       .  A
C789        C790   1.393       .  A
C789        H796   1.084       .  S
C790        S792   1.806       .  S
S791        H794   1.406       .  S
S792        H793   1.404       .  S
C797        C798   1.402       .  A
C797        C802   1.423       .  A
C798        C799   1.403   1_565  A
C798        H807   1.084       .  S
C799        C800   1.422       .  A
C799        S803   1.804       .  S
C800        C801   1.403       .  A
C801        C802   1.404   1_545  A
C801        H808   1.084       .  S
C802        S804   1.805       .  S
S803        H806   1.408       .  S
S804        H805   1.408       .  S
C809        C810   1.401       .  A
C809        C814   1.413       .  A
C810        C811   1.394       .  A
C810        H819   1.084       .  S
C811        C812   1.416       .  A
C811        S815   1.805       .  S
C812        C813   1.404       .  A
C813        C814   1.395       .  A
C813        H820   1.084       .  S
C814        S816   1.806       .  S
S815        H818   1.407       .  S
S816        H817   1.407       .  S
C821        C822   1.409       .  A
C821        C826   1.423       .  A
C822        C823   1.403       .  A
C822        H831   1.083       .  S
C823        C824   1.417       .  A
C823        S827   1.803       .  S
C824        C825   1.407       .  A
C825        C826   1.410       .  A
C825        H832   1.082       .  S
C826        S828   1.810       .  S
S827        H830   1.408       .  S
S828        H829   1.407       .  S
C833        C834   1.402       .  A
C833        C838   1.410       .  A
C834        C835   1.401       .  A
C834        H843   1.080       .  S
C835        C836   1.416       .  A
C835        S839   1.805       .  S
C836        C837   1.408       .  A
C837        C838   1.406       .  A
C837        H844   1.083       .  S
C838        S840   1.808       .  S
S839        H842   1.408       .  S
S840        H841   1.407       .  S
C845        C846   1.411       .  A
C845        C850   1.419       .  A
C846        C847   1.399       .  A
C846        H855   1.083       .  S
C847        C848   1.410       .  A
C847        S851   1.801       .  S
C848        C849   1.405       .  A
C849        C850   1.401       .  A
C849        H856   1.084       .  S
C850        S852   1.801       .  S
S851        H854   1.406       .  S
S852        H853   1.408       .  S
C857        C858   1.403       .  A
C857        C862   1.426       .  A
C858        C859   1.402   1_545  A
C858        H867   1.084       .  S
C859        C860   1.420       .  A
C859        S863   1.805       .  S
C860        C861   1.400       .  A
C861        C862   1.404   1_565  A
C861        H868   1.082       .  S
C862        S864   1.813       .  S
S863        H866   1.406       .  S
S864        H865   1.406       .  S
C869        C870   1.412       .  A
C869        C874   1.418       .  A
C870        C871   1.402       .  A
C870        H879   1.083       .  S
C871        C872   1.414       .  A
C871        S875   1.803       .  S
C872        C873   1.409       .  A
C873        C874   1.403       .  A
C873        H880   1.084       .  S
C874        S876   1.802       .  S
S875        H878   1.407       .  S
S876        H877   1.408       .  S
C881        C882   1.402       .  A
C881        C886   1.411       .  A
C882        C883   1.401       .  A
C882        H891   1.084       .  S
C883        C884   1.417       .  A
C883        S887   1.804       .  S
C884        C885   1.406       .  A
C885        C886   1.397       .  A
C885        H892   1.084       .  S
C886        S888   1.805       .  S
S887        H890   1.408       .  S
S888        H889   1.407       .  S
C893        C894   1.403       .  A
C893        C898   1.414       .  A
C894        C895   1.399       .  A
C894        H903   1.084       .  S
C895        C896   1.415       .  A
C895        S899   1.798       .  S
C896        C897   1.404       .  A
C897        C898   1.399       .  A
C897        H904   1.084       .  S
C898        S900   1.804       .  S
S899        H902   1.401       .  S
S900        H901   1.407       .  S
C905        C906   1.408       .  A
C905        C910   1.405       .  A
C906        C907   1.390       .  A
C906        H915   1.084       .  S
C907        C908   1.406       .  A
C907        S911   1.803       .  S
C908        C909   1.411       .  A
C909        C910   1.395       .  A
C909        H916   1.084       .  S
C910        S912   1.804       .  S
S911        H914   1.407       .  S
S912        H913   1.407       .  S
C917        C918   1.408       .  A
C917        C922   1.418       .  A
C918        C919   1.412       .  A
C918        H927   1.082       .  S
C919        C920   1.422       .  A
C919        S923   1.809       .  S
C920        C921   1.409       .  A
C921        C922   1.402       .  A
C921        H928   1.083       .  S
C922        S924   1.801       .  S
S923        H926   1.407       .  S
S924        H925   1.407       .  S
Fe929       O945   2.072       .  S
Fe929       O935   2.111       .  S
Fe929       O942   2.119       .  S
Fe929       O934   2.058       .  S
Fe929       O940   1.931       .  S
Fe930       O933   2.021       .  S
Fe930       O937   2.094       .  S
Fe930       O941   2.034       .  S
Fe930       O946   2.107       .  S
Fe930       O940   1.935       .  S
Fe931       O949   2.101       .  S
Fe931       O936   2.041       .  S
Fe931       O943   2.046       .  S
Fe931       O932   2.088       .  S
Fe931       O940   1.936       .  S
O932        C939   1.275       .  A
O933        C947   1.262       .  A
O934        C939   1.271       .  A
O935        C938   1.280       .  A
O936        C948   1.263       .  A
O937        C950   1.272       .  A
C938        O943   1.268       .  A
C938       C1800   1.495       .  S
C939       C1821   1.481       .  S
O941        C944   1.267       .  A
O942        C944   1.283       .  A
C944       C1788   1.488       .  S
O945        C950   1.271       .  A
O946        C948   1.276       .  A
C947        O949   1.277       .  A
C947       C1836   1.475       .  S
C948       C1812   1.484       .  S
C950       C1845   1.507       .  S
Fe951       O967   2.121       .  S
Fe951       O957   2.057       .  S
Fe951       O964   2.067       .  S
Fe951       O956   2.116       .  S
Fe951       O962   1.936       .  S
Fe952       O955   2.116       .  S
Fe952       O959   2.031       .  S
Fe952       O963   2.097       .  S
Fe952       O968   2.020       .  S
Fe952       O962   1.939       .  S
Fe953       O971   2.038       .  S
Fe953       O958   2.096       .  S
Fe953       O965   2.091       .  S
Fe953       O954   2.038       .  S
Fe953       O962   1.937       .  S
O954        C961   1.266       .  A
O955        C969   1.277       .  A
O956        C961   1.280       .  A
O957        C960   1.269       .  A
O958        C970   1.276       .  A
O959        C972   1.266       .  A
C960        O965   1.274       .  A
C960       C1824   1.486       .  S
C961       C1761   1.475       .  S
O963        C966   1.275       .  A
O964        C966   1.268       .  A
C966       C1749   1.508       .  S
O967        C972   1.283       .  A
O968        C970   1.260       .  A
C969        O971   1.265       .  A
C969       C1773   1.499       .  S
C970       C1740   1.472       .  S
C972       C1725   1.494       .  S
Fe973       O989   2.056       .  S
Fe973       O979   2.121       .  S
Fe973       O986   2.131       .  S
Fe973       O978   2.044       .  S
Fe973       O984   1.930       .  S
Fe974       O977   2.021       .  S
Fe974       O981   2.102       .  S
Fe974       O985   2.037       .  S
Fe974       O984   1.932       .  S
Fe975       O993   2.096       .  S
Fe975       O987   2.040       .  S
Fe975       O976   2.090       .  S
Fe975       O984   1.937       .  S
O976        C983   1.275       .  A
O977        C991   1.262       .  A
O978        C983   1.268       .  A
O979        C982   1.282       .  A
O980        C992   1.264       .  A
O981        C994   1.276       .  A
C982        O987   1.266       .  A
C982       C1776   1.486       .  S
C983       C1713   1.478       .  S
O985        C988   1.267       .  A
O986        C988   1.285       .  A
C988       C1680   1.496       .  S
O989        C994   1.266       .  A
O990        C992   1.277       .  A
C991        O993   1.275       .  A
C991       C1689   1.470       .  S
C992       C1764   1.482       .  S
C994       C1701   1.503       .  S
Fe995      O1011   2.130       .  S
Fe995      O1001   2.042       .  S
Fe995      O1008   2.060       .  S
Fe995      O1000   2.112       .  S
Fe995      O1006   1.929       .  S
Fe996      O1003   2.033       .  S
Fe996      O1007   2.097       .  S
Fe996      O1012   2.016       .  S
Fe996      O1006   1.924       .  S
Fe997      O1002   2.104       .  S
Fe997      O1009   2.095       .  S
Fe997       O998   2.045       .  S
Fe997      O1006   1.930       .  S
O998       C1005   1.266       .  A
O999       C1013   1.278       .  A
O1000      C1005   1.278       .  A
O1001      C1004   1.271       .  A
O1002      C1014   1.278       .  A
O1003      C1016   1.268       .  A
C1004      O1009   1.277       .  A
C1004      C1716   1.478       .  S
C1005      C1809   1.475       .  S
O1007      C1010   1.275       .  A
O1008      C1010   1.267       .  A
C1010      C1665   1.494       .  S
O1011      C1016   1.283       .  A
O1012      C1014   1.258       .  A
C1013      O1015   1.265       .  A
C1013      C1797   1.501       .  S
C1014      C1656   1.469       .  S
C1016      C1644   1.502       .  S
Fe1017     O1033   2.070       .  S
Fe1017     O1023   2.111       .  S
Fe1017     O1030   2.125       .  S
Fe1017     O1022   2.060       .  S
Fe1017     O1028   1.925       .  S
Fe1018     O1021   2.015       .  S
Fe1018     O1025   2.099       .  S
Fe1018     O1029   2.037       .  S
Fe1018     O1028   1.930       .  S
Fe1019     O1037   2.100       .  S
Fe1019     O1031   2.043       .  S
Fe1019     O1020   2.094       .  S
Fe1019     O1028   1.936       .  S
O1020      C1027   1.275       .  A
O1021      C1035   1.257       .  A
O1022      C1027   1.273       .  A
O1023      C1026   1.279       .  A
O1024      C1036   1.266       .  A
O1025      C1038   1.273       .  A
C1026      O1031   1.266       .  A
C1026      C1605   1.474       .  S
C1027      C1629   1.498       .  S
O1029      C1032   1.268       .  A
O1030      C1032   1.283       .  A
C1032      C1593   1.497       .  S
O1033      C1038   1.271       .  A
O1034      C1036   1.276       .  A
C1035      O1037   1.275       .  A
C1035      C1653   1.462       .  S
C1036      C1617   1.498       .  S
C1038      C1848   1.508       .  S
Fe1039     O1055   2.124       .  S
Fe1039     O1045   2.051       .  S
Fe1039     O1052   2.062       .  S
Fe1039     O1044   2.109       .  S
Fe1039     O1050   1.927       .  S
Fe1040     O1047   2.036       .  S
Fe1040     O1051   2.100       .  S
Fe1040     O1056   2.015       .  S
Fe1040     O1050   1.935       .  S
Fe1041     O1046   2.111       .  S
Fe1041     O1053   2.103       .  S
Fe1041     O1042   2.046       .  S
Fe1041     O1050   1.932       .  S
O1042      C1049   1.266       .  A
O1043      C1057   1.277       .  A
O1044      C1049   1.279       .  A
O1045      C1048   1.270       .  A
O1046      C1058   1.280       .  A
O1047      C1060   1.268       .  A
C1048      O1053   1.279       .  A
C1048      C1632   1.495       .  S
C1049      C1569   1.480       .  S
O1051      C1054   1.274       .  A
O1052      C1054   1.268       .  A
C1054      C1752   1.496       .  S
O1055      C1060   1.283       .  A
O1056      C1058   1.262       .  A
C1057      O1059   1.262       .  A
C1057      C1581   1.492       .  S
C1058      C1692   1.471       .  S
C1060      C1557   1.496       .  S
Fe1061     O1077   2.059       .  S
Fe1061     O1067   2.106       .  S
Fe1061     O1074   2.121       .  S
Fe1061     O1066   2.050       .  S
Fe1061     O1072   1.939       .  S
Fe1062     O1065   2.022       .  S
Fe1062     O1069   2.100       .  S
Fe1062     O1073   2.033       .  S
Fe1062     O1078   2.107       .  S
Fe1062     O1072   1.938       .  S
Fe1063     O1081   2.096       .  S
Fe1063     O1068   2.037       .  S
Fe1063     O1075   2.037       .  S
Fe1063     O1064   2.090       .  S
Fe1063     O1072   1.936       .  S
O1064      C1071   1.276       .  A
O1065      C1079   1.263       .  A
O1066      C1071   1.269       .  A
O1067      C1070   1.277       .  A
O1068      C1080   1.262       .  A
O1069      C1082   1.275       .  A
C1070      O1075   1.265       .  A
C1070      C1584   1.493       .  S
C1071      C1545   1.485       .  S
O1073      C1076   1.268       .  A
O1074      C1076   1.281       .  A
C1076      C1533   1.498       .  S
O1077      C1082   1.267       .  A
O1078      C1080   1.276       .  A
C1079      O1081   1.277       .  A
C1079      C1737   1.469       .  S
C1080      C1572   1.494       .  S
C1082      C1704   1.500       .  S
Fe1083     O1099   2.131       .  S
Fe1083     O1089   2.055       .  S
Fe1083     O1096   2.062       .  S
Fe1083     O1088   2.116       .  S
Fe1083     O1094   1.931       .  S
Fe1084     O1087   2.112       .  S
Fe1084     O1091   2.037       .  S
Fe1084     O1095   2.096       .  S
Fe1084     O1100   2.022       .  S
Fe1084     O1094   1.934       .  S
Fe1085     O1103   2.035       .  S
Fe1085     O1090   2.100       .  S
Fe1085     O1097   2.089       .  S
Fe1085     O1086   2.035       .  S
Fe1085     O1094   1.933       .  S
O1086      C1093   1.266       .  A
O1087      C1101   1.277       .  A
O1088      C1093   1.281       .  A
O1089      C1092   1.271       .  A
O1090      C1102   1.276       .  A
O1091      C1104   1.269       .  A
C1092      O1097   1.274       .  A
C1092      C1548   1.488       .  S
C1093      C1620   1.486       .  S
O1095      C1098   1.274       .  A
O1096      C1098   1.265       .  A
C1098      C1668   1.506       .  S
O1099      C1104   1.284       .  A
O1100      C1102   1.262       .  A
C1101      O1103   1.263       .  A
C1101      C1608   1.488       .  S
C1102      C1833   1.474       .  S
C1104      C1521   1.503       .  S
Fe1105     O1121   2.070       .  S
Fe1105     O1111   2.114       .  S
Fe1105     O1118   2.131       .  S
Fe1105     O1110   2.062       .  S
Fe1105     O1116   1.935       .  S
Fe1106     O1109   2.015       .  S
Fe1106     O1113   2.095       .  S
Fe1106     O1117   2.032       .  S
Fe1106     O1116   1.940       .  S
Fe1107     O1125   2.099       .  S
Fe1107     O1119   2.037       .  S
Fe1107     O1108   2.086       .  S
Fe1107     O1116   1.941       .  S
O1108      C1115   1.273       .  A
O1109      C1123   1.262       .  A
O1110      C1115   1.271       .  A
O1111      C1114   1.282       .  A
O1112      C1124   1.263       .  A
O1113      C1126   1.271       .  A
C1114      O1119   1.265       .  A
C1114      C1485   1.491       .  S
C1115      C1512   1.488       .  S
O1117      C1120   1.267       .  A
O1118      C1120   1.287       .  A
C1120      C1677   1.497       .  S
O1121      C1126   1.268       .  A
O1122      C1124   1.273       .  A
C1123      O1125   1.275       .  A
C1123      C1461   1.472       .  S
C1124      C1497   1.490       .  S
C1126      C1473   1.504       .  S
Fe1127     O1143   2.126       .  S
Fe1127     O1133   2.056       .  S
Fe1127     O1140   2.064       .  S
Fe1127     O1132   2.112       .  S
Fe1127     O1138   1.928       .  S
Fe1128     O1135   2.029       .  S
Fe1128     O1139   2.106       .  S
Fe1128     O1144   2.011       .  S
Fe1128     O1138   1.935       .  S
Fe1129     O1134   2.107       .  S
Fe1129     O1141   2.094       .  S
Fe1129     O1130   2.031       .  S
Fe1129     O1138   1.931       .  S
O1130      C1137   1.265       .  A
O1131      C1145   1.275       .  A
O1132      C1137   1.281       .  A
O1133      C1136   1.270       .  A
O1134      C1146   1.278       .  A
O1135      C1148   1.268       .  A
C1136      O1141   1.276       .  A
C1136      C1509   1.487       .  S
C1137      C1413   1.482       .  S
O1139      C1142   1.276       .  A
O1140      C1142   1.267       .  A
C1142      C1452   1.507       .  S
O1143      C1148   1.284       .  A
O1144      C1146   1.260       .  A
C1145      O1147   1.262       .  A
C1145      C1425   1.482       .  S
C1146      C1440   1.462       .  S
C1148      C1641   1.498       .  S
Fe1149     O1165   2.058       .  S
Fe1149     O1155   2.106       .  S
Fe1149     O1162   2.117       .  S
Fe1149     O1154   2.047       .  S
Fe1149     O1160   1.930       .  S
Fe1150     O1153   2.024       .  S
Fe1150     O1157   2.099       .  S
Fe1150     O1161   2.032       .  S
Fe1150     O1166   2.111       .  S
Fe1150     O1160   1.934       .  S
Fe1151     O1169   2.104       .  S
Fe1151     O1156   2.035       .  S
Fe1151     O1163   2.031       .  S
Fe1151     O1152   2.092       .  S
Fe1151     O1160   1.935       .  S
O1152      C1159   1.274       .  A
O1153      C1167   1.262       .  A
O1154      C1159   1.267       .  A
O1155      C1158   1.279       .  A
O1156      C1168   1.264       .  A
O1157      C1170   1.274       .  A
C1158      O1163   1.267       .  A
C1158      C1428   1.492       .  S
C1159      C1377   1.481       .  S
O1161      C1164   1.267       .  A
O1162      C1164   1.283       .  A
C1164      C1785   1.493       .  S
O1165      C1170   1.265       .  A
O1166      C1168   1.276       .  A
C1167      O1169   1.276       .  A
C1167      C1401   1.472       .  S
C1168      C1416   1.494       .  S
C1170      C1389   1.504       .  S
Fe1171     O1187   2.120       .  S
Fe1171     O1177   2.059       .  S
Fe1171     O1184   2.062       .  S
Fe1171     O1176   2.105       .  S
Fe1171     O1182   1.927       .  S
Fe1172     O1175   2.127       .  S
Fe1172     O1179   2.040       .  S
Fe1172     O1183   2.108       .  S
Fe1172     O1188   2.015       .  S
Fe1172     O1182   1.941       .  S
Fe1173     O1191   2.032       .  S
Fe1173     O1178   2.103       .  S
Fe1173     O1185   2.085       .  S
Fe1173     O1174   2.031       .  S
Fe1173     O1182   1.930       .  S
O1174      C1181   1.266       .  A
O1175      C1189   1.278       .  A
O1176      C1181   1.279       .  A
O1177      C1180   1.271       .  A
O1178      C1190   1.278       .  A
O1179      C1192   1.270       .  A
C1180      O1185   1.273       .  A
C1180      C1380   1.484       .  S
C1181      C1500   1.483       .  S
O1183      C1186   1.276       .  A
O1184      C1186   1.266       .  A
C1186      C1353   1.507       .  S
O1187      C1192   1.284       .  A
O1188      C1190   1.261       .  A
C1189      O1191   1.257       .  A
C1189      C1488   1.497       .  S
C1190      C1368   1.464       .  S
C1192      C1728   1.488       .  S
Fe1193     O1209   2.064       .  S
Fe1193     O1199   2.111       .  S
Fe1193     O1206   2.111       .  S
Fe1193     O1198   2.055       .  S
Fe1193     O1204   1.934       .  S
Fe1194     O1197   2.022       .  S
Fe1194     O1201   2.102       .  S
Fe1194     O1205   2.039       .  S
Fe1194     O1210   2.114       .  S
Fe1194     O1204   1.935       .  S
Fe1195     O1213   2.088       .  S
Fe1195     O1200   2.030       .  S
Fe1195     O1207   2.029       .  S
Fe1195     O1196   2.091       .  S
Fe1195     O1204   1.935       .  S
O1196      C1203   1.274       .  A
O1197      C1211   1.260       .  A
O1198      C1203   1.270       .  A
O1199      C1202   1.278       .  A
O1200      C1212   1.262       .  A
O1201      C1214   1.275       .  A
C1202      O1207   1.263       .  A
C1202      C1332   1.471       .  S
C1203      C1341   1.482       .  S
O1205      C1208   1.267       .  A
O1206      C1208   1.280       .  A
C1208      C1536   1.490       .  S
O1209      C1214   1.272       .  A
O1210      C1212   1.280       .  A
C1211      O1213   1.273       .  A
C1211      C1365   1.461       .  S
C1212      C1317   1.491       .  S
C1214      C1476   1.510       .  S
Fe1215     O1231   2.128       .  S
Fe1215     O1221   2.060       .  S
Fe1215     O1228   2.064       .  S
Fe1215     O1220   2.116       .  S
Fe1215     O1226   1.933       .  S
Fe1216     O1219   2.111       .  S
Fe1216     O1223   2.042       .  S
Fe1216     O1227   2.104       .  S
Fe1216     O1232   2.026       .  S
Fe1216     O1226   1.936       .  S
Fe1217     O1235   2.042       .  S
Fe1217     O1222   2.098       .  S
Fe1217     O1229   2.095       .  S
Fe1217     O1218   2.043       .  S
Fe1217     O1226   1.935       .  S
O1218      C1225   1.265       .  A
O1219      C1233   1.276       .  A
O1220      C1225   1.280       .  A
O1221      C1224   1.272       .  A
O1222      C1234   1.276       .  A
O1223      C1236   1.268       .  A
C1224      O1229   1.276       .  A
C1224      C1344   1.485       .  S
C1225      C1308   1.476       .  S
O1227      C1230   1.276       .  A
O1228      C1230   1.268       .  A
C1230      C1449   1.504       .  S
O1231      C1236   1.283       .  A
O1232      C1234   1.263       .  A
C1233      O1235   1.265       .  A
C1233      C1293   1.500       .  S
C1234      C1404   1.473       .  S
C1236      C1524   1.500       .  S
Fe1237     O1253   2.064       .  S
Fe1237     O1243   2.119       .  S
Fe1237     O1250   2.136       .  S
Fe1237     O1242   2.051       .  S
Fe1237     O1248   1.931       .  S
Fe1238     O1241   2.013       .  S
Fe1238     O1245   2.099       .  S
Fe1238     O1249   2.027       .  S
Fe1238     O1248   1.932       .  S
Fe1239     O1257   2.106       .  S
Fe1239     O1251   2.038       .  S
Fe1239     O1240   2.097       .  S
Fe1239     O1248   1.932       .  S
O1240      C1247   1.277       .  A
O1241      C1255   1.261       .  A
O1242      C1247   1.271       .  A
O1243      C1246   1.281       .  A
O1244      C1256   1.264       .  A
O1245      C1258   1.274       .  A
C1246      O1251   1.265       .  A
C1246      C1296   1.486       .  S
C1247      C1281   1.486       .  S
O1249      C1252   1.268       .  A
O1250      C1252   1.286       .  A
C1252      C1596   1.502       .  S
O1253      C1258   1.267       .  A
O1254      C1256   1.276       .  A
C1255      O1257   1.279       .  A
C1255      C1437   1.464       .  S
C1256      C1305   1.482       .  S
C1258      C1392   1.499       .  S
Fe1259     O1275   2.128       .  S
Fe1259     O1265   2.055       .  S
Fe1259     O1272   2.062       .  S
Fe1259     O1264   2.113       .  S
Fe1259     O1270   1.928       .  S
Fe1260     O1267   2.038       .  S
Fe1260     O1271   2.108       .  S
Fe1260     O1276   2.020       .  S
Fe1260     O1270   1.936       .  S
Fe1261     O1266   2.099       .  S
Fe1261     O1273   2.089       .  S
Fe1261     O1262   2.030       .  S
Fe1261     O1270   1.931       .  S
O1262      C1269   1.264       .  A
O1263      C1277   1.276       .  A
O1264      C1269   1.280       .  A
O1265      C1268   1.270       .  A
O1266      C1278   1.275       .  A
O1267      C1280   1.269       .  A
C1268      O1273   1.275       .  A
C1268      C1284   1.484       .  S
C1269      C1320   1.475       .  S
O1271      C1274   1.277       .  A
O1272      C1274   1.267       .  A
C1274      C1356   1.506       .  S
O1275      C1280   1.284       .  A
O1276      C1278   1.262       .  A
C1277      O1279   1.261       .  A
C1277      C1329   1.488       .  S
C1278      C1464   1.472       .  S
C1280      C1560   1.500       .  S
C1281      C1282   1.405       .  A
C1281      C1286   1.415       .  A
C1282      C1283   1.399   1_455  A
C1282      H1291   1.084       .  S
C1283      C1284   1.415       .  A
C1283      S1287   1.804       .  S
C1284      C1285   1.405       .  A
C1285      C1286   1.401   1_655  A
S1287      H1290   1.408       .  S
S1288      H1289   1.405       .  S
C1293      C1294   1.413       .  A
C1293      C1298   1.421       .  A
C1294      C1295   1.402       .  A
C1294      H1303   1.083       .  S
C1295      C1296   1.411       .  A
C1295      S1299   1.803       .  S
C1296      C1297   1.406       .  A
C1297      C1298   1.402       .  A
C1297      H1304   1.084       .  S
C1298      S1300   1.802       .  S
S1299      H1302   1.406       .  S
S1300      H1301   1.408       .  S
C1305      C1306   1.407       .  A
C1305      C1310   1.413       .  A
C1306      C1307   1.403       .  A
C1306      H1315   1.084       .  S
C1307      C1308   1.412       .  A
C1307      S1311   1.805       .  S
C1308      C1309   1.403       .  A
C1309      C1310   1.402       .  A
C1309      H1316   1.082       .  S
C1310      S1312   1.802       .  S
S1311      H1314   1.405       .  S
S1312      H1313   1.407       .  S
C1317      C1318   1.406       .  A
C1317      C1322   1.423       .  A
C1318      C1319   1.399       .  A
C1318      H1327   1.083       .  S
C1319      C1320   1.413       .  A
C1319      S1323   1.805       .  S
C1320      C1321   1.400       .  A
C1321      C1322   1.405       .  A
C1321      H1328   1.083       .  S
C1322      S1324   1.811       .  S
S1323      H1326   1.407       .  S
S1324      H1325   1.407       .  S
C1329      C1330   1.407       .  A
C1329      C1334   1.420       .  A
C1330      C1331   1.400       .  A
C1330      H1339   1.082       .  S
C1331      C1332   1.409       .  A
C1331      S1335   1.809       .  S
C1332      C1333   1.400       .  A
C1333      C1334   1.404       .  A
C1333      H1340   1.083       .  S
C1334      S1336   1.810       .  S
S1335      H1338   1.407       .  S
S1336      H1337   1.407       .  S
C1341      C1342   1.405       .  A
C1341      C1346   1.414       .  A
C1342      C1343   1.407   1_655  A
C1342      H1351   1.083       .  S
C1343      C1344   1.416       .  A
C1343      S1347   1.807       .  S
C1344      C1345   1.404       .  A
C1345      C1346   1.399   1_455  A
C1345      H1352   1.084       .  S
C1346      S1348   1.805       .  S
S1347      H1350   1.407       .  S
S1348      H1349   1.408       .  S
C1353      C1354   1.408       .  A
C1353      C1358   1.422       .  A
C1354      C1355   1.406       .  A
C1354      H1363   1.083       .  S
C1355      C1356   1.421       .  A
C1355      S1359   1.802       .  S
C1356      C1357   1.407       .  A
C1357      C1358   1.410       .  A
C1357      H1364   1.082       .  S
C1358      S1360   1.810       .  S
S1359      H1362   1.408       .  S
S1360      H1361   1.407       .  S
C1365      C1366   1.402       .  A
C1365      C1370   1.412       .  A
C1366      C1367   1.396       .  A
C1366      H1375   1.083       .  S
C1367      C1368   1.413       .  A
C1367      S1371   1.811       .  S
C1368      C1369   1.403       .  A
C1369      C1370   1.393       .  A
C1369      H1376   1.084       .  S
C1370      S1372   1.806       .  S
S1371      H1374   1.407       .  S
S1372      H1373   1.405       .  S
C1377      C1378   1.403       .  A
C1377      C1382   1.415       .  A
C1378      C1379   1.401       .  A
C1378      H1387   1.084       .  S
C1379      C1380   1.416       .  A
C1379      S1383   1.799       .  S
C1380      C1381   1.404       .  A
C1381      C1382   1.398       .  A
C1381      H1388   1.084       .  S
C1382      S1384   1.804       .  S
S1383      H1386   1.407       .  S
S1384      H1385   1.407       .  S
C1389      C1390   1.409       .  A
C1389      C1394   1.423       .  A
C1390      C1391   1.403       .  A
C1390      H1399   1.083       .  S
C1391      C1392   1.416       .  A
C1391      S1395   1.802       .  S
C1392      C1393   1.406       .  A
C1393      C1394   1.409       .  A
C1393      H1400   1.082       .  S
C1394      S1396   1.811       .  S
S1395      H1398   1.408       .  S
S1396      H1397   1.407       .  S
C1401      C1402   1.408       .  A
C1401      C1406   1.408       .  A
C1402      C1403   1.393       .  A
C1402      H1411   1.084       .  S
C1403      C1404   1.408       .  A
C1403      S1407   1.803       .  S
C1404      C1405   1.410       .  A
C1405      C1406   1.396       .  A
C1405      H1412   1.084       .  S
C1406      S1408   1.803       .  S
S1407      H1410   1.408       .  S
S1408      H1409   1.407       .  S
C1413      C1414   1.407       .  A
C1413      C1418   1.410       .  A
C1414      C1415   1.400       .  A
C1414      H1423   1.084       .  S
C1415      C1416   1.418       .  A
C1415      S1419   1.802       .  S
C1416      C1417   1.413       .  A
C1417      C1418   1.399       .  A
C1417      H1424   1.083       .  S
C1418      S1420   1.803       .  S
S1419      H1422   1.408       .  S
S1420      H1421   1.407       .  S
C1425      C1426   1.408       .  A
C1425      C1430   1.409       .  A
C1426      C1427   1.397       .  A
C1426      H1435   1.084       .  S
C1427      C1428   1.415       .  A
C1427      S1431   1.801       .  S
C1428      C1429   1.414       .  A
C1429      C1430   1.399       .  A
C1429      H1436   1.083       .  S
C1430      S1432   1.803       .  S
S1431      H1434   1.408       .  S
S1432      H1433   1.407       .  S
C1437      C1438   1.410       .  A
C1437      C1442   1.404       .  A
C1438      H1447   1.084       .  S
C1439      C1440   1.404       .  A
C1439      S1443   1.804       .  S
C1440      C1441   1.409   1_556  A
C1441      H1448   1.084       .  S
C1442      S1444   1.803       .  S
S1443      H1446   1.407       .  S
S1444      H1445   1.407       .  S
C1449      C1450   1.407       .  A
C1449      C1454   1.419       .  A
C1450      C1451   1.410       .  A
C1450      H1459   1.082       .  S
C1451      C1452   1.422       .  A
C1451      S1455   1.810       .  S
C1452      C1453   1.409       .  A
C1453      C1454   1.406       .  A
C1453      H1460   1.083       .  S
C1454      S1456   1.802       .  S
S1455      H1458   1.406       .  S
S1456      H1457   1.408       .  S
C1461      C1462   1.406       .  A
C1461      C1466   1.413   1_556  A
C1462      H1471   1.084       .  S
C1463      C1464   1.413       .  A
C1463      S1467   1.800       .  S
C1464      C1465   1.407       .  A
C1465      H1472   1.084       .  S
C1466      S1468   1.801       .  S
S1467      H1470   1.407       .  S
S1468      H1469   1.407   1_554  S
C1473      C1474   1.408       .  A
C1473      C1478   1.419       .  A
C1474      C1475   1.407       .  A
C1474      H1483   1.084       .  S
C1475      C1476   1.421       .  A
C1475      S1479   1.801       .  S
C1476      C1477   1.410       .  A
C1477      C1478   1.408       .  A
C1477      H1484   1.082       .  S
C1478      S1480   1.810       .  S
S1479      H1482   1.408       .  S
S1480      H1481   1.407       .  S
C1485      C1486   1.399       .  A
C1485      C1490   1.420       .  A
C1486      C1487   1.402       .  A
C1486      H1495   1.083       .  S
C1487      C1488   1.426       .  A
C1487      S1491   1.810       .  S
C1488      C1489   1.404       .  A
C1489      C1490   1.407       .  A
C1489      H1496   1.082       .  S
C1490      S1492   1.810       .  S
S1491      H1494   1.407       .  S
S1492      H1493   1.407       .  S
C1497      C1498   1.411       .  A
C1497      C1502   1.415       .  A
C1498      C1499   1.398       .  A
C1498      H1507   1.083       .  S
C1499      C1500   1.412       .  A
C1499      S1503   1.803       .  S
C1500      C1501   1.408       .  A
C1501      C1502   1.399       .  A
C1501      H1508   1.084       .  S
C1502      S1504   1.802       .  S
S1503      H1506   1.408       .  S
S1504      H1505   1.406       .  S
C1509      C1510   1.404       .  A
C1509      C1514   1.416       .  A
C1510      C1511   1.401       .  A
C1510      H1519   1.084       .  S
C1511      C1512   1.416       .  A
C1512      C1513   1.405       .  A
C1513      C1514   1.405       .  A
C1513      H1520   1.083       .  S
C1514      S1516   1.809       .  S
S1515      H1518   1.406       .  S
S1516      H1517   1.406       .  S
C1521      C1522   1.413       .  A
C1521      C1526   1.415       .  A
C1522      C1523   1.403       .  A
C1522      H1531   1.084       .  S
C1523      C1524   1.414       .  A
C1523      S1527   1.800       .  S
C1524      C1525   1.412       .  A
C1525      C1526   1.405       .  A
C1525      H1532   1.084       .  S
C1526      S1528   1.800       .  S
S1527      H1530   1.407       .  S
S1528      H1529   1.408       .  S
C1533      C1534   1.412       .  A
C1533      C1538   1.416       .  A
C1534      C1535   1.399       .  A
C1534      H1543   1.083       .  S
C1535      C1536   1.412       .  A
C1535      S1539   1.802       .  S
C1536      C1537   1.410       .  A
C1537      C1538   1.404       .  A
C1537      H1544   1.084       .  S
C1538      S1540   1.800       .  S
S1539      H1542   1.408       .  S
S1540      H1541   1.408       .  S
C1545      C1546   1.405       .  A
C1545      C1550   1.417       .  A
C1546      C1547   1.400   1_655  A
C1546      H1555   1.084       .  S
C1547      C1548   1.417       .  A
C1547      S1551   1.800       .  S
C1548      C1549   1.406       .  A
C1549      C1550   1.399   1_455  A
C1549      H1556   1.084       .  S
C1550      S1552   1.805       .  S
S1551      H1554   1.408       .  S
S1552      H1553   1.408       .  S
C1557      C1562   1.414       .  A
C1558      C1559   1.404   1_565  A
C1558      H1567   1.084       .  S
C1559      C1560   1.415       .  A
C1559      S1563   1.800       .  S
C1561      C1562   1.402   1_545  A
C1561      H1568   1.083       .  S
C1562      S1564   1.801       .  S
S1563      H1566   1.408       .  S
S1564      H1565   1.408       .  S
C1569      C1570   1.401       .  A
C1569      C1574   1.414       .  A
C1570      C1571   1.401       .  A
C1570      H1579   1.084       .  S
C1571      C1572   1.421       .  A
C1571      S1575   1.804       .  S
C1572      C1573   1.408       .  A
C1573      C1574   1.402       .  A
C1573      H1580   1.083       .  S
C1574      S1576   1.803       .  S
S1575      H1578   1.408       .  S
S1576      H1577   1.406       .  S
C1581      C1582   1.411       .  A
C1581      C1586   1.413       .  A
C1582      C1583   1.400       .  A
C1582      H1591   1.083       .  S
C1583      C1584   1.414       .  A
C1583      S1587   1.800       .  S
C1584      C1585   1.411       .  A
C1585      C1586   1.401       .  A
C1585      H1592   1.084       .  S
C1586      S1588   1.802       .  S
S1587      H1590   1.408       .  S
S1588      H1589   1.408       .  S
C1593      C1598   1.413       .  A
C1594      C1595   1.408   1_565  A
C1594      H1603   1.083       .  S
C1595      C1596   1.415       .  A
C1595      S1599   1.807       .  S
C1597      C1598   1.405   1_545  A
C1597      H1604   1.082       .  S
C1598      S1600   1.810       .  S
S1599      H1602   1.407   1_545  S
S1600      H1601   1.406   1_565  S
C1605      C1606   1.400       .  A
C1605      C1610   1.412       .  A
C1606      C1607   1.400       .  A
C1606      H1615   1.084       .  S
C1607      C1608   1.419       .  A
C1607      S1611   1.804       .  S
C1608      C1609   1.409       .  A
C1609      C1610   1.402       .  A
C1609      H1616   1.084       .  S
C1610      S1612   1.805       .  S
S1611      H1614   1.408       .  S
S1612      H1613   1.407       .  S
C1617      C1618   1.413       .  A
C1617      C1622   1.419       .  A
C1618      C1619   1.402       .  A
C1618      H1627   1.083       .  S
C1619      C1620   1.412       .  A
C1619      S1623   1.803       .  S
C1620      C1621   1.406       .  A
C1621      C1622   1.400       .  A
C1621      H1628   1.084       .  S
C1622      S1624   1.801       .  S
S1623      H1626   1.405       .  S
S1624      H1625   1.408       .  S
C1629      C1630   1.406       .  A
C1629      C1634   1.420       .  A
C1630      C1631   1.402   1_455  A
C1630      H1639   1.082       .  S
C1631      C1632   1.418       .  A
C1631      S1635   1.812       .  S
C1632      C1633   1.407       .  A
C1633      C1634   1.409   1_655  A
C1633      H1640   1.082       .  S
C1634      S1636   1.809       .  S
S1635      H1638   1.406   1_655  S
S1636      H1637   1.407       .  S
C1641      C1646   1.415       .  A
C1642      C1643   1.410       .  A
C1642      H1651   1.083       .  S
C1643      C1644   1.417       .  A
C1643      S1647   1.808       .  S
C1645      C1646   1.407       .  A
C1645      H1652   1.082       .  S
C1646      S1648   1.809       .  S
S1647      H1650   1.407       .  S
S1648      H1649   1.407       .  S
C1653      C1654   1.395       .  A
C1654      C1655   1.395       .  A
C1654      H1663   1.083       .  S
C1655      S1659   1.812       .  S
C1656      C1657   1.396       .  A
C1657      C1658   1.396       .  A
C1657      H1664   1.083       .  S
C1658      S1660   1.812       .  S
S1659      H1662   1.407       .  S
S1660      H1661   1.406       .  S
C1665      C1666   1.404       .  A
C1665      C1670   1.415       .  A
C1666      C1667   1.407       .  A
C1666      H1675   1.082       .  S
C1667      C1668   1.425       .  A
C1667      S1671   1.811       .  S
C1668      C1669   1.411       .  A
C1669      C1670   1.404       .  A
C1669      H1676   1.083       .  S
C1670      S1672   1.803       .  S
S1671      H1674   1.407       .  S
S1672      H1673   1.407       .  S
C1677      C1678   1.403       .  A
C1677      C1682   1.424   1_556  A
C1678      C1679   1.403       .  A
C1678      H1687   1.083       .  S
C1679      S1683   1.805       .  S
C1680      C1681   1.402       .  A
C1681      H1688   1.084       .  S
C1682      S1684   1.804       .  S
S1684      H1685   1.408       .  S
C1689      C1690   1.409       .  A
C1690      C1691   1.394       .  A
C1690      H1699   1.084       .  S
C1691      S1695   1.802       .  S
C1692      C1693   1.411   1_556  A
C1693      C1694   1.393       .  A
C1693      H1700   1.084       .  S
C1694      S1696   1.804       .  S
S1695      H1698   1.404       .  S
S1696      H1697   1.407       .  S
C1701      C1702   1.408       .  A
C1701      C1706   1.422       .  A
C1702      C1703   1.403       .  A
C1702      H1711   1.083       .  S
C1703      C1704   1.418       .  A
C1703      S1707   1.803       .  S
C1704      C1705   1.407       .  A
C1705      C1706   1.409       .  A
C1705      H1712   1.082       .  S
C1706      S1708   1.811       .  S
S1707      H1710   1.408       .  S
S1708      H1709   1.406       .  S
C1713      C1714   1.405       .  A
C1713      C1718   1.415       .  A
C1714      C1715   1.400       .  A
C1714      H1723   1.084       .  S
C1715      C1716   1.414       .  A
C1715      S1719   1.801       .  S
C1716      C1717   1.403       .  A
C1717      C1718   1.394       .  A
C1717      H1724   1.084       .  S
C1718      S1720   1.805       .  S
S1719      H1722   1.406       .  S
S1720      H1721   1.404       .  S
C1725      C1726   1.404       .  A
C1725      C1730   1.423       .  A
C1726      C1727   1.403   1_565  A
C1726      H1735   1.083       .  S
C1727      C1728   1.418       .  A
C1727      S1731   1.804       .  S
C1728      C1729   1.401       .  A
C1729      C1730   1.401   1_545  A
C1729      H1736   1.084       .  S
C1730      S1732   1.805       .  S
S1731      H1734   1.408       .  S
S1732      H1733   1.408       .  S
C1737      C1738   1.403       .  A
C1737      C1742   1.414       .  A
C1738      C1739   1.395       .  A
C1738      H1747   1.084       .  S
C1739      C1740   1.416       .  A
C1739      S1743   1.805       .  S
C1740      C1741   1.404       .  A
C1741      C1742   1.394       .  A
C1741      H1748   1.084       .  S
C1742      S1744   1.805       .  S
S1743      H1746   1.407       .  S
S1744      H1745   1.407       .  S
C1749      C1750   1.410       .  A
C1749      C1754   1.425       .  A
C1750      C1751   1.404       .  A
C1750      H1759   1.083       .  S
C1751      C1752   1.414       .  A
C1751      S1755   1.803       .  S
C1752      C1753   1.405       .  A
C1753      C1754   1.410       .  A
C1753      H1760   1.082       .  S
C1754      S1756   1.810       .  S
S1755      H1758   1.408       .  S
S1756      H1757   1.407       .  S
C1761      C1762   1.402       .  A
C1761      C1766   1.409       .  A
C1762      C1763   1.401       .  A
C1762      H1771   1.062       .  S
C1763      C1764   1.415       .  A
C1763      S1767   1.805       .  S
C1764      C1765   1.408       .  A
C1765      C1766   1.404       .  A
C1765      H1772   1.079       .  S
C1766      S1768   1.808       .  S
S1767      H1770   1.408       .  S
S1768      H1769   1.407       .  S
C1773      C1774   1.412       .  A
C1773      C1778   1.419       .  A
C1774      C1775   1.400       .  A
C1774      H1783   1.083       .  S
C1775      C1776   1.411       .  A
C1775      S1779   1.801       .  S
C1776      C1777   1.406       .  A
C1777      C1778   1.404       .  A
C1777      H1784   1.084       .  S
C1778      S1780   1.801       .  S
S1779      H1782   1.406       .  S
S1780      H1781   1.408       .  S
C1785      C1786   1.404       .  A
C1785      C1790   1.423       .  A
C1786      C1787   1.400   1_545  A
C1786      H1795   1.083       .  S
C1787      C1788   1.418       .  A
C1787      S1791   1.805       .  S
C1788      C1789   1.402       .  A
C1789      C1790   1.405   1_565  A
C1789      H1796   1.082       .  S
C1790      S1792   1.812       .  S
S1791      H1794   1.406       .  S
S1792      H1793   1.406       .  S
C1797      C1798   1.413       .  A
C1797      C1802   1.417       .  A
C1798      C1799   1.402       .  A
C1798      H1807   1.083       .  S
C1799      C1800   1.414       .  A
C1799      S1803   1.803       .  S
C1800      C1801   1.410       .  A
C1801      C1802   1.404       .  A
C1801      H1808   1.084       .  S
C1802      S1804   1.801       .  S
S1803      H1806   1.408       .  S
S1804      H1805   1.408       .  S
C1809      C1810   1.403       .  A
C1809      C1814   1.411       .  A
C1810      C1811   1.403       .  A
C1810      H1819   1.084       .  S
C1811      C1812   1.417       .  A
C1811      S1815   1.804       .  S
C1812      C1813   1.407       .  A
C1813      C1814   1.401       .  A
C1813      H1820   1.084       .  S
C1814      S1816   1.805       .  S
S1815      H1818   1.408       .  S
S1816      H1817   1.407       .  S
C1821      C1822   1.403       .  A
C1821      C1826   1.414       .  A
C1822      C1823   1.400       .  A
C1822      H1831   1.084       .  S
C1823      C1824   1.417       .  A
C1823      S1827   1.799       .  S
C1824      C1825   1.405       .  A
C1825      C1826   1.400       .  A
C1825      H1832   1.084       .  S
C1826      S1828   1.804       .  S
S1827      H1830   1.399       .  S
S1828      H1829   1.407       .  S
C1833      C1834   1.410       .  A
C1833      C1838   1.408       .  A
C1834      C1835   1.392       .  A
C1834      H1843   1.084       .  S
C1835      C1836   1.408       .  A
C1835      S1839   1.803       .  S
C1836      C1837   1.411       .  A
C1837      C1838   1.394       .  A
C1837      H1844   1.084       .  S
C1838      S1840   1.803       .  S
S1839      H1842   1.408       .  S
S1840      H1841   1.408       .  S
C1845      C1846   1.409       .  A
C1845      C1850   1.420       .  A
C1846      C1847   1.412       .  A
C1846      H1855   1.082       .  S
C1847      C1848   1.422       .  A
C1847      S1851   1.809       .  S
C1848      C1849   1.408       .  A
C1849      C1850   1.404       .  A
C1849      H1856   1.084       .  S
C1850      S1852   1.801       .  S
S1851      H1854   1.407       .  S
S1852      H1853   1.408       .  S
