geometry optimzed in LAMMPS
_audit_creation_date              2020-12-01 
_audit_creation_method            'lammps2cif' 
_symmetry_space_group_name_H-M    'P1' 
_symmetry_Int_Tables_number       1 
_symmetry_cell_setting            triclinic 
loop_ 
_symmetry_equiv_pos_as_xyz 
  x,y,z 
_cell_length_a                    33.69522632 
_cell_length_b                    44.6261175294952 
_cell_length_c                    41.5633068463624 
_cell_angle_alpha                 90.39731436306853 
_cell_angle_beta                  90.26921773145975 
_cell_angle_gamma                 89.46727393675238 
loop_ 
_atom_site_label 
_atom_site_type_symbol 
_atom_site_fract_x 
_atom_site_fract_y 
_atom_site_fract_z 
_atom_site_charge 
Fe1        Fe  0.66605824  0.22114715  0.62581404     1.65800
Fe2        Fe  0.65176778  0.15339525  0.59049724     1.73200
Fe3        Fe  0.74208802  0.17166321  0.61914384     1.54400
O4          O  0.76407132  0.21556166  0.61881772    -0.81900
O5          O  0.66488948  0.11960011  0.62226680    -0.80200
O6          O  0.71204284  0.24303204  0.60506034    -0.84400
O7          O  0.69831207  0.21832211  0.67045171    -0.79300
O8          O  0.75073637  0.16630636  0.57047992    -0.81000
O9          O  0.60180691  0.16445915  0.61693647    -0.83800
C10         C  0.72374141  0.19970924  0.68261650     0.97000
C11         C  0.74799909  0.24081992  0.61322392     1.04400
O12         O  0.68619232  0.18204694  0.61245580    -1.12800
O13         O  0.63774087  0.18390352  0.55606111    -0.75200
O14         O  0.63595815  0.22807958  0.58121514    -0.78700
O15         O  0.73550031  0.17642302  0.66753016    -0.79400
C16         C  0.63185617  0.21190725  0.55574203     0.95900
O17         O  0.61584019  0.20400347  0.64757551    -0.77300
O18         O  0.69662989  0.13905907  0.56047231    -0.82500
C19         C  0.69990621  0.10942349  0.62545822     0.98500
C20         C  0.73101665  0.14811883  0.55312070     1.04400
O21         O  0.73011864  0.12612633  0.62254075    -0.78200
C22         C  0.59227340  0.18351694  0.63843535     1.02700
Fe23       Fe  0.85490173  0.01562682  0.36069086     1.65800
Fe24       Fe  0.86470859  0.07690661  0.40690589     1.73200
Fe25       Fe  0.77448474  0.05861321  0.37602716     1.54400
O26         O  0.77512382  0.04478134  0.32838283    -0.81900
O27         O  0.82771636  0.07558824  0.44525098    -0.80200
O28         O  0.83703057  0.03071378  0.31479197    -0.84400
O29         O  0.80411803  0.99077328  0.36143332    -0.79300
O30         O  0.78433748  0.10233113  0.36161430    -0.81000
O31         O  0.89528744  0.04103499  0.42763940    -0.83800
C32         C  0.77096343  0.99162876  0.37554002     0.97000
C33         C  0.80092845  0.03749348  0.30737342     1.04400
O34         O  0.83113942  0.05085564  0.38087653    -1.12800
O35         O  0.90504335  0.08127945  0.37049198    -0.75200
O36         O  0.91167622  0.03384917  0.35622210    -0.78700
O37         O  0.75874044  0.01529838  0.38980880    -0.79400
C38         C  0.92576717  0.06005577  0.35899796     0.95900
O39         O  0.86830384  0.99992167  0.40708304    -0.77300
O40         O  0.83671106  0.11566019  0.39139618    -0.82500
C41         C  0.79077824  0.08051938  0.44621240     0.98500
C42         C  0.80672665  0.12218965  0.37406464     1.04400
O43         O  0.76771566  0.07478553  0.42265385    -0.78200
C44         C  0.88411084  0.01403288  0.43073458     1.02700
Fe45       Fe  0.35229501  0.23890859  0.64845750     1.65800
Fe46       Fe  0.36326992  0.17834959  0.60086554     1.73200
Fe47       Fe  0.27227040  0.19846752  0.62938549     1.54400
O48         O  0.27146889  0.21138942  0.67711484    -0.81900
O49         O  0.32686603  0.18059377  0.56189520    -0.80200
O50         O  0.33323481  0.22279138  0.69314811    -0.84400
O51         O  0.30184347  0.26476746  0.64739266    -0.79300
O52         O  0.28106851  0.15439653  0.64311959    -0.81000
O53         O  0.39331962  0.21452957  0.58123371    -0.83800
C54         C  0.27003525  0.26525202  0.63124591     0.97000
C55         C  0.29668232  0.21704934  0.69915480     1.04400
O56         O  0.32919112  0.20456644  0.62666605    -1.12800
O57         O  0.40426149  0.17297286  0.63729668    -0.75200
O58         O  0.40885439  0.21992893  0.65353095    -0.78700
O59         O  0.25835050  0.24234377  0.61559813    -0.79400
C60         C  0.42406002  0.19399833  0.64988073     0.95900
O61         O  0.36626585  0.25543957  0.60300788    -0.77300
O62         O  0.33504897  0.13962351  0.61600689    -0.82500
C63         C  0.28978298  0.17741917  0.55981284     0.98500
C64         C  0.30417392  0.13388323  0.63238422     1.04400
O65         O  0.26622469  0.18343361  0.58271831    -0.78200
C66         C  0.38165231  0.24168874  0.57894236     1.02700
Fe67       Fe  0.16994427  0.03906845  0.38170691     1.65800
Fe68       Fe  0.15251572  0.10652105  0.41648345     1.73200
Fe69       Fe  0.24217438  0.09058250  0.38426486     1.54400
O70         O  0.26678194  0.04685263  0.38323804    -0.81900
O71         O  0.16208219  0.14061129  0.38460501    -0.80200
O72         O  0.21845861  0.01973189  0.40276245    -0.84400
O73         O  0.19995803  0.04182786  0.33651913    -0.79300
O74         O  0.25378589  0.09585657  0.43250020    -0.81000
O75         O  0.10244691  0.09406353  0.39091900    -0.83800
C76         C  0.22108645  0.06169144  0.32235625     0.97000
C77         C  0.25291424  0.02168752  0.39145839     1.04400
O78         O  0.18762726  0.07886628  0.39358840    -1.12800
O79         O  0.14145395  0.07606408  0.45173266    -0.75200
O80         O  0.14152211  0.03202267  0.42642527    -0.78700
O81         O  0.23135090  0.08591514  0.33622146    -0.79400
C82         C  0.13696891  0.04795844  0.45194129     0.95900
O83         O  0.11802733  0.05451865  0.36042484    -0.77300
O84         O  0.19817140  0.12135554  0.44498673    -0.82500
C85         C  0.19612997  0.15191956  0.38119199     0.98500
C86         C  0.23355617  0.11297377  0.45091646     1.04400
O87         O  0.22771144  0.13609870  0.38219968    -0.78200
C88         C  0.09348325  0.07452880  0.36976614     1.02700
Fe89       Fe  0.15497854  0.49078946  0.65104957     1.65800
Fe90       Fe  0.14305154  0.43114679  0.60269864     1.73200
Fe91       Fe  0.23438086  0.44842977  0.63212789     1.54400
O92         O  0.24989064  0.49240988  0.62024991    -0.81900
O93         O  0.17229173  0.39168861  0.61421329    -0.80200
O94         O  0.20580402  0.51583785  0.65083666    -0.84400
O95         O  0.17376129  0.47383527  0.69573718    -0.79300
O96         O  0.23888374  0.43482569  0.58467193    -0.81000
O97         O  0.10461204  0.42500585  0.64034256    -0.83800
C98         C  0.20991942  0.46648752  0.70217763     0.97000
C99         C  0.23827149  0.51559357  0.63571501     1.04400
O100        O  0.17774751  0.45618584  0.62905921    -1.12800
O101        O  0.11099086  0.46777937  0.58590948    -0.75200
O102        O  0.14088543  0.50801426  0.60548613    -0.78700
O103        O  0.23518828  0.45987502  0.68048207    -0.79400
C104        C  0.12377597  0.49424048  0.58225926     0.95900
O105        O  0.09844399  0.47226443  0.65557324    -0.77300
O106        O  0.17813356  0.43480510  0.56330831    -0.82500
C107        C  0.20301740  0.38457321  0.63034302     0.98500
C108        C  0.21511117  0.43009716  0.56136263     1.04400
O109        O  0.22509986  0.40393598  0.64405723    -0.78200
C110        C  0.08419951  0.44610414  0.65261313     1.02700
Fe111      Fe  0.33702892  0.28806365  0.38089503     1.65800
Fe112      Fe  0.35352714  0.35594369  0.41545511     1.73200
Fe113      Fe  0.26260146  0.33924452  0.38679545     1.54400
O114        O  0.26798627  0.33296786  0.33822359    -0.81900
O115        O  0.30917802  0.37251358  0.44392563    -0.80200
O116        O  0.30688395  0.29183103  0.33556789    -0.84400
O117        O  0.28966969  0.26639867  0.39986524    -0.79300
O118        O  0.27659630  0.38428737  0.38215363    -0.81000
O119        O  0.36470112  0.32536497  0.45087375    -0.83800
C120        C  0.25349915  0.27034601  0.39331313     0.97000
C121        C  0.28111482  0.31002148  0.32315085     1.04400
O122        O  0.31812851  0.32775543  0.39357224    -1.12800
O123        O  0.40395900  0.34311103  0.39061696    -0.75200
O124        O  0.38864302  0.30367129  0.36041196    -0.78700
O125        O  0.23883274  0.29616314  0.38837770    -0.79400
C126        C  0.41319514  0.32320957  0.36996840     0.95900
O127        O  0.36478165  0.28070856  0.42640111    -0.77300
O128        O  0.34216556  0.38978575  0.38302382    -0.82500
C129        C  0.27471619  0.36452724  0.45209785     0.98500
C130        C  0.30732838  0.40044901  0.37936195     1.04400
O131        O  0.25455244  0.34587836  0.43563494    -0.78200
C132        C  0.36818409  0.29708350  0.45179013     1.02700
Fe133      Fe  0.84143610  0.47090185  0.62729863     1.65800
Fe134      Fe  0.85827062  0.40245970  0.59338994     1.73200
Fe135      Fe  0.76650655  0.42121506  0.61876725     1.54400
O136        O  0.77152648  0.42678475  0.66712910    -0.81900
O137        O  0.81466399  0.38713328  0.56322243    -0.80200
O138        O  0.81029276  0.46725879  0.67180698    -0.84400
O139        O  0.79459957  0.49326678  0.60723357    -0.79300
O140        O  0.77936327  0.37617733  0.62364007    -0.81000
O141        O  0.87239704  0.43306590  0.55893217    -0.83800
C142        C  0.75836901  0.49039300  0.61368811     0.97000
C143        C  0.78444491  0.44902801  0.68313061     1.04400
O144        O  0.82244045  0.43157852  0.61373490    -1.12800
O145        O  0.90737885  0.41374442  0.62064339    -0.75200
O146        O  0.89266927  0.45458915  0.64903030    -0.78700
O147        O  0.74290639  0.46484086  0.61719367    -0.79400
C148        C  0.91657825  0.43368580  0.64116880     0.95900
O149        O  0.87040067  0.47802979  0.58263957    -0.77300
O150        O  0.84454621  0.36840373  0.62489626    -0.82500
C151        C  0.77956050  0.39406036  0.55492290     0.98500
C152        C  0.80921112  0.35897183  0.62747880     1.04400
O153        O  0.75930595  0.41395183  0.56993111    -0.78200
C154        C  0.87580320  0.46130740  0.55774606     1.02700
Fe155      Fe  0.65326707  0.26623142  0.35939834     1.65800
Fe156      Fe  0.64092172  0.32736239  0.40586484     1.73200
Fe157      Fe  0.73291499  0.30675663  0.37996577     1.54400
O158        O  0.74706538  0.26263975  0.39208958    -0.81900
O159        O  0.66969509  0.36598515  0.39253845    -0.80200
O160        O  0.70376351  0.24026849  0.36022170    -0.84400
O161        O  0.67333279  0.28253234  0.31475111    -0.79300
O162        O  0.73662538  0.31965143  0.42787203    -0.81000
O163        O  0.60329207  0.33248983  0.36740830    -0.83800
C164        C  0.70973756  0.28937846  0.30900807     0.97000
C165        C  0.73596716  0.23997407  0.37584835     1.04400
O166        O  0.67603714  0.30069315  0.38142678    -1.12800
O167        O  0.60918541  0.29151877  0.42379189    -0.75200
O168        O  0.63838477  0.25009530  0.40516924    -0.78700
O169        O  0.73455848  0.29549530  0.33135512    -0.79400
C170        C  0.62153749  0.26480326  0.42799788     0.95900
O171        O  0.59645206  0.28502772  0.35428703    -0.77300
O172        O  0.67502764  0.32549122  0.44621334    -0.82500
C173        C  0.70169920  0.37171915  0.37789246     0.98500
C174        C  0.71216212  0.32666268  0.45001821     1.04400
O175        O  0.72536588  0.35132267  0.36787303    -0.78200
C176        C  0.58210523  0.31134369  0.35697377     1.02700
Fe177      Fe  0.85436297  0.23526529  0.85963595     1.65800
Fe178      Fe  0.86683429  0.17455877  0.90584882     1.73200
Fe179      Fe  0.77482079  0.19445969  0.87866000     1.54400
O180        O  0.76072279  0.23870438  0.89148504    -0.81900
O181        O  0.83915839  0.13589610  0.89038981    -0.80200
O182        O  0.80395432  0.26086918  0.86010969    -0.84400
O183        O  0.83520488  0.21880007  0.81465613    -0.79300
O184        O  0.77025722  0.18187283  0.92644402    -0.81000
O185        O  0.90625484  0.16988531  0.86858097    -0.83800
C186        C  0.79883347  0.21230484  0.80830234     0.97000
C187        C  0.77224396  0.26148323  0.87604426     1.04400
O188        O  0.83175141  0.20075310  0.88101643    -1.12800
O189        O  0.89669872  0.21093429  0.92610012    -0.75200
O190        O  0.86872609  0.25195050  0.90551516    -0.78700
O191        O  0.77383978  0.20580497  0.83013593    -0.79400
C192        C  0.88507250  0.23809630  0.92907426     0.95900
O193        O  0.91104864  0.21713315  0.85468115    -0.77300
O194        O  0.83160492  0.17537677  0.94537672    -0.82500
C195        C  0.80692012  0.12962951  0.87594926     0.98500
C196        C  0.79442780  0.17494915  0.94889579     1.04400
O197        O  0.78250289  0.14960436  0.86610989    -0.78200
C198        C  0.92613094  0.19116642  0.85721781     1.02700
Fe199      Fe  0.66728154  0.03565087  0.12587740     1.65800
Fe200      Fe  0.64883429  0.10507108  0.09555338     1.73200
Fe201      Fe  0.74100422  0.08605880  0.12053737     1.54400
O202        O  0.73760707  0.07825413  0.16867902    -0.81900
O203        O  0.69171758  0.12206590  0.06595560    -0.80200
O204        O  0.70083599  0.03662138  0.16976263    -0.84400
O205        O  0.71305324  0.01472055  0.10251147    -0.79300
O206        O  0.72759744  0.13097601  0.12796573    -0.81000
O207        O  0.63500537  0.07554274  0.05936144    -0.83800
C208        C  0.74972516  0.01758030  0.10760921     0.97000
C209        C  0.72630606  0.05455150  0.18259263     1.04400
O210        O  0.68526440  0.07566916  0.11475036    -1.12800
O211        O  0.60025553  0.09170318  0.12210819    -0.75200
O212        O  0.61735282  0.05112832  0.14985322    -0.78700
O213        O  0.76453023  0.04261663  0.11550625    -0.79400
C214        C  0.59214463  0.07111137  0.14195247     0.95900
O215        O  0.63559174  0.03042851  0.08200177    -0.77300
O216        O  0.66227923  0.13828375  0.12878463    -0.82500
C217        C  0.72649636  0.11464844  0.05730158     0.98500
C218        C  0.69748868  0.14805084  0.13169820     1.04400
O219        O  0.74684392  0.09478891  0.07209301    -0.78200
C220        C  0.63049439  0.04741793  0.05754291     1.02700
Fe221      Fe  0.16879996  0.21752993  0.87994094     1.65800
Fe222      Fe  0.15386822  0.14964691  0.91345831     1.73200
Fe223      Fe  0.24419244  0.16680089  0.88525747     1.54400
O224        O  0.23606649  0.17154699  0.83686266    -0.81900
O225        O  0.19862478  0.13542448  0.94314130    -0.80200
O226        O  0.19931264  0.21382658  0.83536112    -0.84400
O227        O  0.21630826  0.23923226  0.89974826    -0.79300
O228        O  0.23205443  0.12111651  0.88295737    -0.81000
O229        O  0.13975901  0.18037840  0.94832717    -0.83800
C230        C  0.25202092  0.23605016  0.89129374     0.97000
C231        C  0.22438963  0.19529110  0.82272309     1.04400
O232        O  0.18858565  0.17812930  0.89248411    -1.12800
O233        O  0.10431864  0.16066179  0.88728698    -0.75200
O234        O  0.11747021  0.20112177  0.85865152    -0.78700
O235        O  0.26696693  0.21040751  0.88545051    -0.79400
C236        C  0.09428704  0.18027115  0.86691267     0.95900
O237        O  0.14009974  0.22509646  0.92476356    -0.77300
O238        O  0.16686911  0.11580733  0.88093738    -0.82500
C239        C  0.23350353  0.14335447  0.95079076     0.98500
C240        C  0.20154003  0.10462744  0.88104553     1.04400
O241        O  0.25379243  0.16141728  0.93400069    -0.78200
C242        C  0.13544237  0.20859833  0.94957996     1.02700
Fe243      Fe  0.35208525  0.01471084  0.14868524     1.65800
Fe244      Fe  0.36407043  0.07459969  0.10082105     1.73200
Fe245      Fe  0.27237440  0.05700257  0.12863175     1.54400
O246        O  0.25690169  0.01276219  0.11730422    -0.81900
O247        O  0.33687047  0.11446677  0.11520221    -0.80200
O248        O  0.30167306  0.98941223  0.14722231    -0.84400
O249        O  0.33226505  0.03171275  0.19325610    -0.79300
O250        O  0.26730150  0.06898157  0.08093453    -0.81000
O251        O  0.40383787  0.07939611  0.13790929    -0.83800
C252        C  0.29679273  0.04106880  0.19919867     0.97000
C253        C  0.26898138  0.98962085  0.13228103     1.04400
O254        O  0.32927163  0.04926012  0.12629527    -1.12800
O255        O  0.39400786  0.03752381  0.08147393    -0.75200
O256        O  0.36765034  0.99706948  0.10363902    -0.78700
O257        O  0.27179444  0.04763955  0.17722464    -0.79400
C258        C  0.38408499  0.01005259  0.07985719     0.95900
O259        O  0.40887871  0.03272198  0.15436982    -0.77300
O260        O  0.32828684  0.07351086  0.06133191    -0.82500
C261        C  0.30504141  0.12144015  0.12992251     0.98500
C262        C  0.29102624  0.07588932  0.05855256     1.04400
O263        O  0.28081734  0.10186748  0.13994094    -0.78200
C264        C  0.42381256  0.05847961  0.15057289     1.02700
Fe265      Fe  0.34236947  0.46589652  0.88393443     1.65800
Fe266      Fe  0.35893912  0.39750622  0.91568480     1.73200
Fe267      Fe  0.26867915  0.41547086  0.88534552     1.54400
O268        O  0.24531586  0.45952649  0.88848318    -0.81900
O269        O  0.34797083  0.36404917  0.88242991    -0.80200
O270        O  0.29585870  0.48545889  0.90729908    -0.84400
O271        O  0.30969747  0.46568713  0.83959022    -0.79300
O272        O  0.25774111  0.40731618  0.93313233    -0.81000
O273        O  0.40874419  0.41032445  0.89026573    -0.83800
C274        C  0.28662883  0.44694351  0.82527280     0.97000
C275        C  0.25988436  0.48388964  0.89908733     1.04400
O276        O  0.32377091  0.42613692  0.89449924    -1.12800
O277        O  0.37090389  0.42724369  0.95241197    -0.75200
O278        O  0.37360943  0.47134738  0.92811359    -0.78700
O279        O  0.27763937  0.42208373  0.83772823    -0.79400
C280        C  0.37725801  0.45516965  0.95335300     0.95900
O281        O  0.39232613  0.44980125  0.86041694    -0.77300
O282        O  0.31357264  0.38163117  0.94310837    -0.77700
C283        C  0.31337671  0.35366175  0.87807770     0.98500
C284        C  0.27769319  0.38828969  0.94937667     1.04400
O285        O  0.28249108  0.37023734  0.87965873    -0.78200
C286        C  0.41707160  0.42971569  0.86907871     1.02700
Fe287      Fe  0.15238011  0.26731165  0.14589036     1.65800
Fe288      Fe  0.14079137  0.32629086  0.09675264     1.73200
Fe289      Fe  0.23189506  0.30730411  0.12653820     1.54400
O290        O  0.23340386  0.29656907  0.17501511    -0.81900
O291        O  0.17568069  0.32091962  0.05728916    -0.80200
O292        O  0.17201495  0.28441559  0.19066891    -0.84400
O293        O  0.20276322  0.24088397  0.14504404    -0.79300
O294        O  0.22277398  0.35185596  0.13875732    -0.81000
O295        O  0.10785394  0.29022624  0.08005377    -0.83800
C296        C  0.23514367  0.24027468  0.12974373     0.97000
C297        C  0.20831048  0.29111631  0.19701324     1.04400
O298        O  0.17519630  0.30088757  0.12348795    -1.12800
O299        O  0.10220978  0.33407828  0.13403099    -0.75200
O300        O  0.09660537  0.28741347  0.15052409    -0.78700
O301        O  0.24692381  0.26305894  0.11438496    -0.79400
C302        C  0.08204202  0.31350969  0.14667634     0.95900
O303        O  0.13717118  0.24996861  0.10052448    -0.77300
O304        O  0.17062638  0.36528395  0.10858916    -0.82500
C305        C  0.21284066  0.32391885  0.05533284     0.98500
C306        C  0.20085449  0.37174813  0.12558053     1.04400
O307        O  0.23611209  0.31973957  0.07906019    -0.78200
C308        C  0.12002040  0.26333655  0.07703466     1.02700
Fe309      Fe  0.65420957  0.48612931  0.85929202     1.65800
Fe310      Fe  0.64580125  0.42692770  0.90775587     1.73200
Fe311      Fe  0.73557077  0.44485168  0.87678585     1.54400
O312        O  0.73509695  0.45698558  0.82906753    -0.81900
O313        O  0.68293705  0.43166706  0.94602820    -0.80200
O314        O  0.67305774  0.46964875  0.81425033    -0.84400
O315        O  0.70417219  0.51177040  0.86023674    -0.79300
O316        O  0.72616726  0.40060422  0.86351087    -0.81000
O317        O  0.61361359  0.46313110  0.92615481    -0.83800
C318        C  0.73748190  0.51187183  0.87429300     0.97000
C319        C  0.70943101  0.46333954  0.80761088     1.04400
O320        O  0.67869868  0.45213489  0.88085084    -1.12800
O321        O  0.60525883  0.41989202  0.87146954    -0.75200
O322        O  0.59837112  0.46642396  0.85443716    -0.78700
O323        O  0.75050188  0.48893880  0.88931856    -0.79400
C324        C  0.58458617  0.44026502  0.85832509     0.95900
O325        O  0.63960150  0.50379672  0.90475008    -0.77300
O326        O  0.67520645  0.38770821  0.89447245    -0.82500
C327        C  0.71952349  0.42529977  0.94703562     0.98500
C328        C  0.70482974  0.38088308  0.87694275     1.04400
O329        O  0.74260262  0.43007514  0.92357114    -0.78200
C330        C  0.62364702  0.49047110  0.92848332     1.02700
Fe331      Fe  0.83982901  0.28694147  0.12628226     1.65800
Fe332      Fe  0.85225907  0.35451544  0.09161120     1.73200
Fe333      Fe  0.76290376  0.33584194  0.12141354     1.54400
O334        O  0.74181069  0.29162032  0.12276022    -0.81900
O335        O  0.83822057  0.38842542  0.12377835    -0.80200
O336        O  0.79299858  0.26470035  0.10635453    -0.84400
O337        O  0.80933443  0.29028159  0.17151884    -0.79300
O338        O  0.75276812  0.33963837  0.07263701    -0.81000
O339        O  0.90278682  0.34485044  0.11758983    -0.83800
C340        C  0.78427775  0.30879925  0.18447997     0.97000
C341        C  0.75784577  0.26644535  0.11644202     1.04400
O342        O  0.81884128  0.32576979  0.11365963    -1.12800
O343        O  0.86723215  0.32385040  0.05667577    -0.75200
O344        O  0.86829925  0.27964097  0.08109849    -0.78700
O345        O  0.77186337  0.33220714  0.16998150    -0.79400
C346        C  0.87266263  0.29573638  0.05586721     0.95900
O347        O  0.89081014  0.30455170  0.14697420    -0.77300
O348        O  0.80651496  0.36702578  0.06202894    -0.82500
C349        C  0.80321250  0.39901875  0.12385928     0.98500
C350        C  0.77223429  0.35741914  0.05489865     1.04400
O351        O  0.77316345  0.38199918  0.12228160    -0.78200
C352        C  0.91353878  0.32551282  0.13810725     1.02700
C353        C  0.73423403  0.40868154  0.97524850    -0.05700
C354        C  0.70949895  0.40599090  0.00229529    -0.33100
C355        C  0.71955943  0.38671602  0.02737254     0.36100
C356        C  0.75493365  0.37002783  0.02580148    -0.06100
C357        C  0.77929664  0.37215234  0.99872309    -0.33000
C358        C  0.76936081  0.39126385  0.97357595     0.36000
H359        H  0.68214902  0.41884495  0.00405715     0.16400
O360        O  0.69633237  0.38620836  0.05436734    -0.60500
H361        H  0.80703531  0.35973624  0.99767414     0.16400
O362        O  0.79370511  0.39201549  0.94722752    -0.60600
H363        H  0.81471186  0.40655213  0.95290178     0.43400
H364        H  0.67905349  0.36851035  0.05151454     0.43400
C365        C  0.95552419  0.32580919  0.14939036    -0.05700
C366        C  0.97264055  0.29926849  0.16125581    -0.33100
C367        C  0.01393230  0.29559844  0.16297208     0.36100
C368        C  0.03919535  0.31905671  0.15349875    -0.06100
C369        C  0.02189918  0.34676486  0.14517223    -0.33000
C370        C  0.98061726  0.35026444  0.14303724     0.36000
H371        H  0.95418028  0.28021720  0.16664333     0.16400
O372        O  0.02905213  0.26825352  0.17198563    -0.60500
H373        H  0.04035993  0.36532771  0.13811691     0.16400
O374        O  0.96539667  0.37706792  0.13242810    -0.60600
H375        H  0.96227666  0.38958244  0.15205051     0.43400
H376        H  0.02715017  0.25536478  0.15247317     0.43400
C377        C  0.54193400  0.43445769  0.85081024    -0.05700
C378        C  0.51689741  0.45831651  0.84142322    -0.33100
C379        C  0.47545726  0.45615620  0.84389784     0.36100
C380        C  0.45833700  0.42988351  0.85628080    -0.06100
C381        C  0.48307422  0.40481202  0.86140367    -0.33000
C382        C  0.52431984  0.40677026  0.85833683     0.36000
H383        H  0.52940155  0.47956123  0.83442187     0.16400
O384        O  0.45237789  0.48059518  0.83623693    -0.60500
H385        H  0.47065329  0.38396932  0.86976231     0.16400
O386        O  0.54708577  0.38202018  0.86535651    -0.60600
H387        H  0.55236258  0.37226932  0.84427237     0.43400
H388        H  0.45275186  0.49360190  0.85565888     0.43400
C389        C  0.25961358  0.37164801  0.97582907    -0.05700
C390        C  0.28514220  0.35674092  0.99734797    -0.33100
C391        C  0.27040387  0.33906627  0.02175449     0.36100
C392        C  0.22916723  0.33615942  0.02546005    -0.06100
C393        C  0.20342561  0.34997850  0.00307798    -0.33000
C394        C  0.21839743  0.36752086  0.97826428     0.36000
H395        H  0.31706526  0.35887239  0.99554624     0.16400
O396        O  0.29675503  0.32496161  0.04202011    -0.60500
H397        H  0.17152945  0.34814367  0.00541938     0.16400
O398        O  0.19254789  0.38047059  0.95675933    -0.60600
H399        H  0.18935484  0.36545117  0.93927740     0.43400
H400        H  0.30629722  0.34079885  0.05694037     0.43400
C401        C  0.38688774  0.46924614  0.98560142    -0.05700
C402        C  0.38911589  0.50053102  0.98881086    -0.33100
C403        C  0.40467293  0.00772184  0.02067758     0.36100
C404        C  0.38907751  0.99360230  0.04834638    -0.06100
C405        C  0.37232061  0.96509631  0.04431340    -0.33000
C406        C  0.38979267  0.45199100  0.01418112     0.36000
H407        H  0.38760519  0.51450834  0.96762657     0.16400
O408        O  0.42377641  0.03464143  0.02324924    -0.60500
H409        H  0.36006154  0.95354151  0.06478513     0.16400
O410        O  0.39027391  0.42128405  0.01285375    -0.60600
H411        H  0.41859453  0.41564499  0.00996963     0.43400
H412        H  0.40418125  0.04990269  0.01594535     0.43400
C413        C  0.21240584  0.40358549  0.12894027    -0.05700
C414        C  0.23347679  0.41258759  0.15636030    -0.33100
C415        C  0.25049740  0.44094346  0.15823742     0.36100
C416        C  0.24669123  0.46121892  0.13236583    -0.06100
C417        C  0.22369329  0.45294767  0.10557051    -0.33000
C418        C  0.20661597  0.42433078  0.10368769     0.36000
H419        H  0.23781648  0.39722263  0.17617796     0.16400
O420        O  0.27097438  0.44864361  0.18564435    -0.60500
H421        H  0.21809592  0.96739833  0.08652813     0.16400
O422        O  0.18723640  0.41605881  0.07596628    -0.60600
H423        H  0.15992040  0.42418780  0.07827330     0.43400
H424        H  0.29693992  0.43810343  0.18397984     0.43400
C425        C  0.29386105  0.15367753  0.13325215    -0.05700
C426        C  0.30387214  0.17410329  0.10888383    -0.33100
C427        C  0.28645261  0.20293425  0.10772782     0.36100
C428        C  0.25874707  0.21182665  0.13132893    -0.06100
C429        C  0.25133415  0.19210412  0.15692541    -0.33000
C430        C  0.26855008  0.16350923  0.15805157     0.36000
H431        H  0.32336867  0.16710051  0.08953258     0.16400
O432        O  0.29538233  0.22155814  0.08272725    -0.60500
H433        H  0.23114221  0.19856509  0.17602022     0.16400
O434        O  0.25926501  0.14496660  0.18304334    -0.60600
H435        H  0.27967392  0.14894656  0.19978587     0.43400
H436        H  0.27813094  0.21502132  0.06466163     0.43400
C437        C  0.23171368  0.01246572  0.89845790    -0.05700
C438        C  0.20703646  0.01941263  0.87193314    -0.33100
C439        C  0.19483611  0.04928411  0.86611783     0.36100
C440        C  0.20766289  0.07228154  0.88691418    -0.06100
C441        C  0.22905180  0.06468471  0.91475358    -0.33000
C442        C  0.24090624  0.03526335  0.92069492     0.36000
H443        H  0.19983917  0.00218840  0.85440771     0.16400
O444        O  0.17240703  0.05591002  0.83943011    -0.60500
H445        H  0.23805225  0.08191920  0.93161134     0.16400
O446        O  0.26285658  0.02910029  0.94782152    -0.60600
H447        H  0.28936977  0.03780673  0.94399522     0.43400
H448        H  0.19087105  0.05423435  0.82098523     0.43400
C449        C  0.27429475  0.26353339  0.88392091    -0.05700
C450        C  0.30829433  0.27198284  0.90120336    -0.33100
C451        C  0.32457603  0.30068431  0.89699735     0.36100
C452        C  0.30694194  0.32099019  0.87502593    -0.06100
C453        C  0.27521598  0.31123982  0.85591224    -0.33000
C454        C  0.25905479  0.28287171  0.86012165     0.36000
H455        H  0.32059058  0.25721470  0.91934476     0.16400
O456        O  0.35546560  0.30951489  0.91635978    -0.60500
H457        H  0.26114761  0.32645770  0.83904146     0.16400
O458        O  0.22671165  0.27484043  0.84198357    -0.60600
H459        H  0.23776855  0.26784343  0.82114260     0.43400
H460        H  0.34287785  0.31788515  0.93601894     0.43400
C461        C  0.12693564  0.22200098  0.98211320    -0.05700
C462        C  0.10839902  0.25014421  0.98583199    -0.33100
C463        C  0.10336696  0.26322223  0.01665881     0.36100
C464        C  0.11703369  0.24815484  0.04471593    -0.06100
C465        C  0.13400958  0.21958973  0.04081794    -0.33000
C466        C  0.13940085  0.20678511  0.01030461     0.36000
H467        H  0.09835804  0.26230507  0.96479973     0.16400
O468        O  0.08568877  0.29097037  0.01888145    -0.60500
H469        H  0.14528917  0.20750893  0.06150180     0.16400
O470        O  0.15909343  0.17982728  0.00843241    -0.60600
H471        H  0.18755971  0.18501143  0.00656731     0.43400
H472        H  0.10656301  0.30538847  0.01286021     0.43400
C473        C  0.27535882  0.09069383  0.02942212    -0.05700
C474        C  0.30186991  0.09925242  0.00502715    -0.33100
C475        C  0.28950883  0.11808194  0.98009578     0.36100
C476        C  0.25016671  0.12864852  0.97927901    -0.06100
C477        C  0.22369108  0.11985577  0.00331918    -0.33000
C478        C  0.23584747  0.10129522  0.02823065     0.36000
H479        H  0.33252556  0.09172273  0.00544754     0.16400
O480        O  0.31567273  0.12514121  0.95618940    -0.60500
H481        H  0.19288858  0.12694867  0.00251681     0.16400
O482        O  0.20873395  0.09397378  0.05134975    -0.60600
H483        H  0.20844937  0.11120101  0.06658806     0.43400
H484        H  0.31334882  0.10874113  0.94012894     0.43400
C485        C  0.70577145  0.18055413  0.13561184    -0.05700
C486        C  0.74281863  0.18849779  0.14844165    -0.33100
C487        C  0.75900769  0.21659483  0.14273504     0.36100
C488        C  0.73783862  0.23804458  0.12457984    -0.06100
C489        C  0.69898179  0.23150960  0.11452897    -0.33000
C490        C  0.68292631  0.20283931  0.11978657     0.36000
H491        H  0.76074780  0.17203533  0.16109063     0.16400
O492        O  0.79603367  0.22282612  0.15482310    -0.60500
H493        H  0.68201377  0.24794995  0.10106448     0.16400
O494        O  0.64659997  0.19610032  0.10679515    -0.60600
H495        H  0.62722914  0.20084522  0.12402545     0.43400
H496        H  0.81495750  0.21307106  0.13974230     0.43400
C497        C  0.77337199  0.49148223  0.10665958    -0.05700
C498        C  0.79447301  0.48387004  0.13489061    -0.33100
C499        C  0.80585459  0.45390386  0.14091735     0.36100
C500        C  0.79640104  0.43137628  0.11839445    -0.06100
C501        C  0.77790370  0.43946940  0.08937552    -0.33000
C502        C  0.76624381  0.46903654  0.08347470     0.36000
H503        H  0.80492214  0.99998782  0.15176163     0.16400
O504        O  0.82394587  0.44668361  0.16948334    -0.60500
H505        H  0.77111066  0.42250848  0.07149715     0.16400
O506        O  0.74659680  0.47568903  0.05536089    -0.60600
H507        H  0.71956877  0.46742505  0.05782747     0.43400
H508        H  0.80200827  0.44465642  0.18514202     0.43400
C509        C  0.61845809  0.50635170  0.96035118    -0.05700
C510        C  0.62536544  0.53728048  0.96317557    -0.33100
C511        C  0.62825172  0.05082963  0.99644611     0.36100
C512        C  0.62135062  0.03429472  0.02494110    -0.06100
C513        C  0.60935818  0.00437182  0.02155530    -0.33000
C514        C  0.61127876  0.49024847  0.98906312     0.36000
H515        H  0.63076318  0.55038023  0.94181596     0.16400
O516        O  0.63997228  0.08016196  0.99784975    -0.60500
H517        H  0.60360588  0.99112341  0.04274311     0.16400
O518        O  0.60418579  0.46005284  0.98819082    -0.60600
H519        H  0.57489446  0.45831549  0.98707662     0.43400
H520        H  0.66942438  0.07937299  0.99812486     0.43400
C521        C  0.55051823  0.06921906  0.15374274    -0.05700
C522        C  0.52549748  0.09444209  0.15119003    -0.33100
C523        C  0.48417337  0.09182863  0.15313522     0.36100
C524        C  0.46674385  0.06348897  0.15778683    -0.06100
C525        C  0.49197922  0.03883900  0.16391328    -0.33000
C526        C  0.53342755  0.04147455  0.16186296     0.36000
H527        H  0.53782372  0.11613222  0.14563775     0.16400
O528        O  0.46112435  0.11702659  0.14895772    -0.60500
H529        H  0.47962339  0.01686105  0.16792598     0.16400
O530        O  0.55657496  0.01625301  0.16547177    -0.60600
H531        H  0.55654173  0.00628968  0.14407223     0.43400
H532        H  0.46091447  0.12068681  0.12544146     0.43400
C533        C  0.88223266  0.28164314  0.02357367    -0.05700
C534        C  0.88940393  0.25068665  0.02068810    -0.33100
C535        C  0.89288584  0.23660215  0.99028882     0.36100
C536        C  0.88879258  0.25327332  0.96147146    -0.06100
C537        C  0.88343138  0.28439458  0.96436562    -0.33000
C538        C  0.88084563  0.29856950  0.99466889     0.36000
H539        H  0.89103237  0.23699689  0.04208035     0.16400
O540        O  0.89848604  0.20616598  0.98919886    -0.60500
H541        H  0.88029805  0.29792241  0.94294159     0.16400
O542        O  0.87513373  0.32901726  0.99541211    -0.60600
H543        H  0.90218901  0.33759283  0.99548464     0.43400
H544        H  0.87245528  0.19770528  0.99510640     0.43400
C545        C  0.74937359  0.29005633  0.87514103    -0.05700
C546        C  0.75507012  0.30911196  0.84868073    -0.33100
C547        C  0.73958896  0.33824477  0.84830460     0.36100
C548        C  0.71663932  0.34880632  0.87424108    -0.06100
C549        C  0.70891846  0.32919187  0.89994428    -0.33000
C550        C  0.72530516  0.30010068  0.90062559     0.36000
H551        H  0.77295737  0.30178583  0.82844378     0.16400
O552        O  0.74744959  0.35628148  0.82254223    -0.60500
H553        H  0.69201554  0.33699661  0.92051962     0.16400
O554        O  0.72029257  0.28276072  0.92738011    -0.60600
H555        H  0.69448536  0.27270434  0.92407618     0.43400
H556        H  0.77485674  0.36356403  0.82614165     0.43400
C557        C  0.76053227  0.04034100  0.87330881    -0.05700
C558        C  0.78542903  0.04920507  0.89862821    -0.33100
C559        C  0.80303331  0.07759053  0.89860180     0.36100
C560        C  0.79569517  0.09768224  0.87300408    -0.06100
C561        C  0.77310506  0.08795182  0.84664987    -0.33000
C562        C  0.75596435  0.05948250  0.84646887     0.36000
H563        H  0.78942959  0.03485972  0.91933555     0.16400
O564        O  0.82423334  0.08650288  0.92518103    -0.60500
H565        H  0.76775612  0.10278132  0.82651736     0.16400
O566        O  0.73473812  0.05050528  0.81986823    -0.60600
H567        H  0.70905220  0.06146448  0.82114802     0.43400
H568        H  0.85156272  0.07884996  0.92154284     0.43400
C569        C  0.96904613  0.18628384  0.85030617    -0.05700
C570        C  0.98659335  0.15853358  0.85800910    -0.33100
C571        C  0.02778035  0.15533497  0.86053901     0.36100
C572        C  0.05262314  0.18011788  0.85503618    -0.06100
C573        C  0.03540363  0.20677168  0.84354665    -0.33000
C574        C  0.99404829  0.21013773  0.84151072     0.36000
H575        H  0.96834185  0.13966377  0.86447152     0.16400
O576        O  0.04305264  0.12847414  0.87094912    -0.60500
H577        H  0.05374819  0.22603216  0.83876526     0.16400
O578        O  0.97856078  0.23745441  0.83279624    -0.60600
H579        H  0.98027476  0.25015922  0.85242162     0.43400
H580        H  0.05173395  0.11780089  0.85116578     0.43400
C581        C  0.77869149  0.16330901  0.97945370    -0.05700
C582        C  0.73799524  0.16603585  0.98559258    -0.33100
C583        C  0.72055142  0.15022287  0.01054903     0.36100
C584        C  0.74395902  0.13116768  0.03020927    -0.06100
C585        C  0.78494692  0.12953401  0.02506011    -0.33000
C586        C  0.80252405  0.14556870  0.00021842     0.36000
H587        H  0.71916475  0.17968248  0.97025402     0.16400
O588        O  0.68043132  0.15340393  0.01511565    -0.60500
H589        H  0.80365051  0.11566085  0.04026184     0.16400
O590        O  0.84253944  0.14196908  0.99515720    -0.60600
H591        H  0.85570054  0.14962433  0.01490450     0.43400
H592        H  0.66803611  0.13930409  0.99960778     0.43400
C593        C  0.72582720  0.29079305  0.27563142    -0.05700
C594        C  0.76400648  0.27884368  0.26928819    -0.33100
C595        C  0.78341733  0.28393931  0.23985950     0.36100
C596        C  0.76540878  0.30219114  0.21631946    -0.06100
C597        C  0.72679794  0.31351976  0.22253535    -0.33000
C598        C  0.70710958  0.30786325  0.25161935     0.36000
H599        H  0.77924496  0.26587675  0.28760031     0.16400
O600        O  0.82068441  0.27217549  0.23511524    -0.60500
H601        H  0.71156570  0.32700172  0.20467540     0.16400
O602        O  0.67026165  0.32023171  0.25679013    -0.60600
H603        H  0.67523544  0.33948125  0.26809620     0.43400
H604        H  0.81632784  0.25150364  0.22703610     0.43400
C605        C  0.72477330  0.46325124  0.77428016    -0.05700
C606        C  0.76129374  0.47734562  0.76822000    -0.33100
C607        C  0.78153564  0.47297171  0.73904502     0.36100
C608        C  0.76537083  0.45418855  0.71512417    -0.06100
C609        C  0.72843924  0.44048178  0.72124344    -0.33000
C610        C  0.70830222  0.44488153  0.75036861     0.36000
H611        H  0.77488815  0.49108038  0.78676748     0.16400
O612        O  0.81750642  0.48643811  0.73470168    -0.60500
H613        H  0.71492439  0.42594904  0.70340629     0.16400
O614        O  0.67426471  0.42922846  0.75618379    -0.60600
H615        H  0.65304231  0.44000596  0.74421942     0.43400
H616        H  0.83753178  0.47155785  0.74214969     0.43400
C617        C  0.76188598  0.37623989  0.52848537    -0.05700
C618        C  0.72071024  0.37657383  0.52365228    -0.33100
C619        C  0.70340636  0.35863760  0.49980964     0.36100
C620        C  0.72751087  0.33988795  0.48019189    -0.06100
C621        C  0.76829482  0.33835092  0.48630386    -0.33000
C622        C  0.78557307  0.35627873  0.50990491     0.36000
H623        H  0.70175917  0.39082513  0.53830683     0.16400
O624        O  0.66307626  0.36040449  0.49538010    -0.60500
H625        H  0.78736014  0.32402895  0.47181404     0.16400
O626        O  0.82587005  0.35406342  0.51431574    -0.60600
H627        H  0.83741210  0.36816381  0.49869185     0.43400
H628        H  0.65867576  0.37790892  0.48117863     0.43400
C629        C  0.22402835  0.29278827  0.23063591    -0.05700
C630        C  0.26249620  0.28144537  0.23712873    -0.33100
C631        C  0.28152750  0.28650753  0.26689091     0.36100
C632        C  0.26259423  0.30374148  0.29090376    -0.06100
C633        C  0.22370164  0.31452932  0.28455486    -0.33000
C634        C  0.20439955  0.30894723  0.25501853     0.36000
H635        H  0.27830524  0.26899453  0.21865427     0.16400
O636        O  0.31894499  0.27507442  0.27185070    -0.60500
H637        H  0.20792224  0.32743535  0.30267345     0.16400
O638        O  0.16745624  0.32107016  0.24954199    -0.60600
H639        H  0.14869853  0.30716720  0.25991536     0.43400
H640        H  0.33716817  0.29048443  0.26350737     0.43400
C641        C  0.45506468  0.32174176  0.35866469    -0.05700
C642        C  0.47952318  0.34683179  0.36272055    -0.33100
C643        C  0.52074957  0.34453614  0.35913758     0.36100
C644        C  0.53872256  0.31655877  0.35180155    -0.06100
C645        C  0.51393326  0.29209237  0.34495988    -0.33000
C646        C  0.47260595  0.29444295  0.34842016     0.36000
H647        H  0.46685491  0.36813509  0.37027333     0.16400
O648        O  0.54321262  0.36940916  0.36530717    -0.60500
H649        H  0.52668340  0.27038153  0.33904997     0.16400
O650        O  0.45011001  0.26927463  0.34395064    -0.60600
H651        H  0.45058108  0.25887612  0.36499270     0.43400
H652        H  0.54781286  0.37850735  0.34397532     0.43400
C653        C  0.26624506  0.45439213  0.79434473    -0.05700
C654        C  0.22916973  0.44106866  0.78753981    -0.33100
C655        C  0.20875973  0.44657643  0.75865588     0.36100
C656        C  0.22531574  0.46550584  0.73562528    -0.06100
C657        C  0.26167228  0.47958918  0.74269863    -0.33000
C658        C  0.28190082  0.47440750  0.77182490     0.36000
H659        H  0.21596270  0.42591168  0.80460663     0.16400
O660        O  0.17433214  0.43148704  0.75217583    -0.60500
H661        H  0.27511281  0.49398536  0.72498776     0.16400
O662        O  0.31748494  0.48820135  0.77741731    -0.60600
H663        H  0.33793279  0.47393708  0.76933856     0.43400
H664        H  0.15269846  0.44522138  0.75920675     0.43400
C665        C  0.95804508  0.43398088  0.65390969    -0.05700
C666        C  0.97411751  0.46086563  0.66582432    -0.33100
C667        C  0.01537742  0.46447077  0.66869697     0.36100
C668        C  0.04143904  0.44081195  0.65983459    -0.06100
C669        C  0.02496089  0.41277104  0.65225592    -0.33000
C670        C  0.98386572  0.40922539  0.64930404     0.36000
H671        H  0.95498610  0.48004666  0.67044002     0.16400
O672        O  0.02976812  0.49174012  0.67846459    -0.60500
H673        H  0.04401534  0.39388874  0.64623203     0.16400
O674        O  0.96963690  0.38193268  0.63951345    -0.60600
H675        H  0.95951136  0.37247041  0.65931696     0.43400
H676        H  0.02729308  0.50490927  0.65941735     0.43400
C677        C  0.23025646  0.41533142  0.53206937    -0.05700
C678        C  0.20364795  0.39955710  0.51204163    -0.33100
C679        C  0.21743309  0.38174651  0.48658872     0.36100
C680        C  0.25841490  0.37940352  0.48092331    -0.06100
C681        C  0.28489416  0.39480749  0.50129723    -0.33000
C682        C  0.27122780  0.41270571  0.52645968     0.36000
H683        H  0.17199044  0.40048540  0.51643627     0.16400
O684        O  0.19061588  0.36706927  0.46735982    -0.60500
H685        H  0.31665851  0.39344471  0.49750050     0.16400
O686        O  0.29824125  0.42801677  0.54495423    -0.60600
H687        H  0.30986647  0.41290313  0.55972875     0.43400
H688        H  0.18214246  0.38196346  0.45106293     0.43400
C689        C  0.28213473  0.04571150  0.23243441    -0.05700
C690        C  0.26997606  0.07473110  0.24139718    -0.33100
C691        C  0.24830912  0.07996376  0.26958935     0.36100
C692        C  0.23795422  0.05589095  0.28973854    -0.06100
C693        C  0.24948052  0.02667402  0.28045605    -0.33000
C694        C  0.27133881  0.02152036  0.25205383     0.36000
H695        H  0.27650469  0.09346996  0.22589921     0.16400
O696        O  0.23725506  0.10883319  0.27710934    -0.60500
H697        H  0.24229965  0.00782990  0.29558126     0.16400
O698        O  0.28023951  0.99268981  0.24286043    -0.60600
H699        H  0.30459326  0.98729858  0.25505829     0.43400
H700        H  0.20986966  0.11111998  0.26858801     0.43400
C701        C  0.12041701  0.50804522  0.54952966    -0.05700
C702        C  0.11868826  0.48929809  0.52201295    -0.33100
C703        C  0.12090806  0.50093884  0.49060101     0.36100
C704        C  0.12780013  0.03391128  0.48384509    -0.06100
C705        C  0.12165402  0.05237384  0.51127408    -0.33000
C706        C  0.11833256  0.04028877  0.54236258     0.36000
H707        H  0.11754864  0.46520254  0.52478592     0.16400
O708        O  0.12204434  0.48145911  0.46495218    -0.60500
H709        H  0.12059686  0.07652061  0.50888123     0.16400
O710        O  0.11379872  0.05929096  0.56817664    -0.60600
H711        H  0.08475048  0.06060608  0.57176585     0.43400
H712        H  0.09424607  0.47498316  0.46172002     0.43400
C713        C  0.27075325  0.49159418  0.38644162    -0.05700
C714        C  0.25206881  0.47218459  0.36458196    -0.33100
C715        C  0.26690623  0.44336772  0.35890394     0.36100
C716        C  0.30062550  0.43309740  0.37577759    -0.06100
C717        C  0.32140487  0.45340870  0.39566656    -0.33000
C718        C  0.30671372  0.48270192  0.40089238     0.36000
H719        H  0.22470646  0.47899709  0.35278437     0.16400
O720        O  0.24636637  0.42451566  0.33876409    -0.60500
H721        H  0.34707929  0.44583125  0.40924021     0.16400
O722        O  0.33138601  0.00310837  0.41524424    -0.60600
H723        H  0.34883474  0.01424834  0.40047897     0.43400
H724        H  0.25367054  0.43066232  0.31667982     0.43400
C725        C  0.22993707  0.24328723  0.38711462    -0.05700
C726        C  0.20479767  0.23159145  0.41051574    -0.33100
C727        C  0.18971749  0.20249175  0.40695719     0.36100
C728        C  0.20050684  0.18470135  0.38006371    -0.06100
C729        C  0.22356168  0.19720438  0.35583178    -0.33000
C730        C  0.23803432  0.22631301  0.35910644     0.36000
H731        H  0.19889126  0.24421015  0.43236253     0.16400
O732        O  0.16815579  0.19049135  0.43153618    -0.60500
H733        H  0.23232993  0.18374129  0.33521013     0.16400
O734        O  0.26179716  0.23752666  0.33543439    -0.60600
H735        H  0.28855340  0.22894821  0.33962025     0.43400
H736        H  0.14000984  0.19408250  0.42553049     0.43400
C737        C  0.28099536  0.21595937  0.73240725    -0.05700
C738        C  0.30167296  0.20022461  0.75620893    -0.33100
C739        C  0.28344443  0.19353181  0.78552880     0.36100
C740        C  0.24360562  0.20247923  0.79155056    -0.06100
C741        C  0.22382851  0.21988639  0.76848576    -0.33000
C742        C  0.24200196  0.22639591  0.73904758     0.36000
H743        H  0.33145826  0.19196556  0.75158289     0.16400
O744        O  0.30507489  0.17819505  0.80820241    -0.60500
H745        H  0.19389742  0.22791605  0.77294016     0.16400
O746        O  0.22146422  0.24315810  0.71683293    -0.60600
H747        H  0.20182193  0.22932473  0.70710401     0.43400
H748        H  0.31718168  0.19388682  0.82200022     0.43400
C749        C  0.29280714  0.10197114  0.63695586    -0.05700
C750        C  0.30742435  0.07950677  0.61589378    -0.33100
C751        C  0.29100840  0.05057512  0.61528316     0.36100
C752        C  0.25942162  0.04365758  0.63594535    -0.06100
C753        C  0.24745372  0.06539927  0.65880170    -0.33000
C754        C  0.26336245  0.09416962  0.65923610     0.36000
H755        H  0.33014256  0.08480017  0.59853662     0.16400
O756        O  0.30439656  0.03006085  0.59307161    -0.60500
H757        H  0.22432077  0.06056852  0.67597491     0.16400
O758        O  0.24923232  0.11463389  0.68128030    -0.60600
H759        H  0.22330502  0.12159070  0.67254656     0.43400
H760        H  0.32579190  0.01873973  0.60421331     0.43400
C761        C  0.21482439  0.35256634  0.63151884    -0.05700
C762        C  0.23236790  0.34115876  0.65943941    -0.33100
C763        C  0.24843577  0.31218258  0.65986787     0.36100
C764        C  0.24718879  0.29380929  0.63196487    -0.06100
C765        C  0.22829052  0.30476123  0.60427483    -0.33000
C766        C  0.21235514  0.33399903  0.60382313     0.36000
H767        H  0.23450281  0.35503716  0.68086892     0.16400
O768        O  0.26559229  0.30201762  0.68780935    -0.60500
H769        H  0.22789328  0.29135025  0.58244576     0.16400
O770        O  0.19785029  0.34516885  0.57537751    -0.60600
H771        H  0.17124923  0.33613622  0.57265571     0.43400
H772        H  0.29185120  0.31185260  0.68903798     0.43400
C773        C  0.37466375  0.28342288  0.48440360    -0.05700
C774        C  0.39338644  0.25539661  0.48808136    -0.33100
C775        C  0.39801545  0.24227294  0.51872630     0.36100
C776        C  0.38349833  0.25697636  0.54677630    -0.06100
C777        C  0.36520391  0.28516285  0.54296086    -0.33000
C778        C  0.36071694  0.29828848  0.51252285     0.36000
H779        H  0.40438377  0.24348401  0.46710280     0.16400
O780        O  0.41682027  0.21497224  0.52081532    -0.60500
H781        H  0.35276263  0.29680658  0.56358895     0.16400
O782        O  0.33997129  0.32483200  0.51042949    -0.60600
H783        H  0.35901268  0.34055753  0.51701577     0.43400
H784        H  0.39616689  0.19996895  0.51585164     0.43400
C785        C  0.25138516  0.12589156  0.47951983    -0.05700
C786        C  0.28328105  0.14536601  0.47597333    -0.33100
C787        C  0.29470344  0.16387701  0.50144052     0.36100
C788        C  0.27429470  0.16264331  0.53093377    -0.06100
C789        C  0.24257571  0.14278060  0.53439053    -0.33000
C790        C  0.23112518  0.12442979  0.50890016     0.36000
H791        H  0.29801187  0.14729576  0.45296009     0.16400
O792        O  0.32559098  0.18320881  0.49717405    -0.60500
H793        H  0.22731621  0.14082505  0.55716971     0.16400
O794        O  0.19948718  0.10562368  0.51257227    -0.60600
H795        H  0.21127492  0.08608517  0.51897440     0.43400
H796        H  0.31301086  0.20293146  0.49272984     0.43400
C797        C  0.78614675  0.03729881  0.27357976    -0.05700
C798        C  0.74893002  0.02431517  0.26687117    -0.33100
C799        C  0.72919982  0.02906561  0.23739808     0.36100
C800        C  0.74626749  0.04748636  0.21395870    -0.06100
C801        C  0.78425000  0.05952326  0.22034903    -0.33000
C802        C  0.80413509  0.05443841  0.24963375     0.36000
H803        H  0.73436279  0.01123284  0.28516400     0.16400
O804        O  0.69270542  0.01648145  0.23236890    -0.60500
H805        H  0.79859566  0.07339581  0.20264507     0.16400
O806        O  0.83959554  0.06832121  0.25550607    -0.60600
H807        H  0.86021120  0.05367288  0.24857653     0.43400
H808        H  0.67324102  0.03181818  0.23976941     0.43400
C809        C  0.76017355  0.21205429  0.37371716    -0.05700
C810        C  0.75529961  0.19333190  0.34651514    -0.33100
C811        C  0.77260977  0.16476050  0.34510260     0.36100
C812        C  0.79537144  0.15424036  0.37117493    -0.06100
C813        C  0.80283045  0.17379615  0.39727302    -0.33000
C814        C  0.78555195  0.20251272  0.39863168     0.36000
H815        H  0.73687184  0.20051599  0.32651268     0.16400
O816        O  0.76577060  0.14694050  0.31866186    -0.60500
H817        H  0.82011453  0.16614887  0.41772649     0.16400
O818        O  0.79111228  0.21993508  0.42553891    -0.60600
H819        H  0.81542244  0.23157040  0.42117732     0.43400
H820        H  0.78956353  0.14919877  0.30495167     0.43400
C821        C  0.71344370  0.40346906  0.37441281    -0.05700
C822        C  0.70163602  0.42492088  0.39766112    -0.33100
C823        C  0.71842027  0.45367659  0.39841595     0.36100
C824        C  0.74694421  0.46148240  0.37534027    -0.06100
C825        C  0.75665390  0.44053316  0.35105391    -0.33000
C826        C  0.74044749  0.41191318  0.35053182     0.36000
H827        H  0.68111745  0.41885385  0.41647338     0.16400
O828        O  0.70613490  0.97689684  0.41936622    -0.60500
H829        H  0.77789481  0.44606261  0.33257305     0.16400
O830        O  0.75249850  0.39200491  0.32716801    -0.60600
H831        H  0.73240092  0.39377389  0.30978941     0.43400
H832        H  0.72617676  0.46827184  0.44080140     0.43400
C833        C  0.88775362  0.99935516  0.46326012    -0.05700
C834        C  0.88011584  0.96865933  0.46643993    -0.33100
C835        C  0.87726477  0.45766645  0.49663230     0.36100
C836        C  0.88400651  0.47457917  0.52522278    -0.06100
C837        C  0.89552201  0.50458897  0.52188285    -0.33000
C838        C  0.89401981  0.01622119  0.49193892     0.36000
H839        H  0.87510278  0.95501346  0.44517539     0.16400
O840        O  0.86544246  0.42838053  0.49789486    -0.60500
H841        H  0.90130346  0.51811350  0.54310566     0.16400
O842        O  0.90161528  0.04631348  0.49064728    -0.60600
H843        H  0.93094211  0.04782177  0.49097281     0.43400
H844        H  0.89408736  0.91458817  0.49655673     0.43400
C845        C  0.96852667  0.06566491  0.35225468    -0.05700
C846        C  0.98438512  0.09380005  0.36034887    -0.33100
C847        C  0.02536431  0.09784157  0.36343453     0.36100
C848        C  0.05171775  0.07361057  0.35794941    -0.06100
C849        C  0.03621451  0.04661683  0.34578239    -0.33000
C850        C  0.99503567  0.04246141  0.34302877     0.36000
H851        H  0.96496601  0.11240898  0.36658694     0.16400
O852        O  0.03921136  0.12537214  0.37291057    -0.60500
H853        H  0.05580676  0.02782089  0.34063672     0.16400
O854        O  0.98116817  0.01525333  0.33257787    -0.60600
H855        H  0.98464884  0.00153526  0.35106701     0.43400
H856        H  0.03324317  0.12698669  0.39620834     0.43400
C857        C  0.74343010  0.20542508  0.71446442    -0.05700
C858        C  0.78147844  0.19274726  0.72020645    -0.33100
C859        C  0.80117935  0.19634111  0.74983876     0.36100
C860        C  0.78293407  0.21258114  0.77480855    -0.06100
C861        C  0.74568101  0.22623993  0.76882044    -0.33000
C862        C  0.72638266  0.22331449  0.73884267     0.36000
H863        H  0.79613376  0.17964249  0.70163342     0.16400
O864        O  0.83747067  0.18284595  0.75450656    -0.60500
H865        H  0.73111720  0.23892387  0.78778186     0.16400
O866        O  0.69015881  0.23689390  0.73427711    -0.60600
H867        H  0.69626618  0.25746188  0.72701644     0.43400
H868        H  0.83151188  0.16213937  0.76137555     0.43400
C869        C  0.61781281  0.25148664  0.46086144    -0.05700
C870        C  0.61665036  0.22037730  0.46474987    -0.33100
C871        C  0.61766714  0.20750175  0.49550591     0.36100
C872        C  0.62229013  0.22560277  0.52359194    -0.06100
C873        C  0.62199883  0.25680414  0.51971545    -0.33000
C874        C  0.61898795  0.26971867  0.48898466     0.36000
H875        H  0.61515339  0.20584331  0.44379672     0.16400
O876        O  0.61517535  0.17694209  0.49753618    -0.60500
H877        H  0.62532580  0.27137943  0.54048444     0.16400
O878        O  0.61981668  0.30031685  0.48679700    -0.60600
H879        H  0.59176668  0.30698145  0.48940140     0.43400
H880        H  0.58647451  0.17279811  0.49986048     0.43400
C881        C  0.76896637  0.26903356  0.62050518    -0.05700
C882        C  0.74883604  0.29010460  0.63974657    -0.33100
C883        C  0.76434309  0.31845313  0.64543850     0.36100
C884        C  0.80055677  0.32670885  0.63131801    -0.06100
C885        C  0.82242410  0.30486665  0.61406269    -0.33000
C886        C  0.80689595  0.27597556  0.60882282     0.36000
H887        H  0.72008256  0.28482515  0.64973872     0.16400
O888        O  0.74215814  0.33879057  0.66276445    -0.60500
H889        H  0.84997211  0.31086628  0.60253385     0.16400
O890        O  0.82725610  0.25584299  0.58993509    -0.60600
H891        H  0.84288934  0.24344121  0.60519519     0.43400
H892        H  0.75443865  0.33923152  0.68446231     0.43400
C893        C  0.70727517  0.07689041  0.62950943    -0.05700
C894        C  0.74320793  0.06802501  0.64367612    -0.33100
C895        C  0.75774668  0.03895419  0.63976798     0.36100
C896        C  0.73649529  0.01782836  0.62126407    -0.06100
C897        C  0.69845232  0.02548211  0.60994257    -0.33000
C898        C  0.68379760  0.05500442  0.61381776     0.36000
H899        H  0.76140800  0.08423398  0.65631706     0.16400
O900        O  0.78394082  0.52977229  0.66262813    -0.60500
H901        H  0.68128456  0.00926994  0.59641706     0.16400
O902        O  0.64793739  0.06265302  0.60029321    -0.60600
H903        H  0.65395289  0.06780174  0.57766642     0.43400
H904        H  0.78844680  0.02729626  0.67585827     0.43400
C905        C  0.55082925  0.18323318  0.65092998    -0.05700
C906        C  0.53361927  0.20983397  0.66294164    -0.33100
C907        C  0.49229090  0.21276904  0.66621078     0.36100
C908        C  0.46716744  0.18895417  0.65696426    -0.06100
C909        C  0.48484579  0.16119378  0.64899543    -0.33000
C910        C  0.52613120  0.15816613  0.64616615     0.36000
H911        H  0.55186933  0.22927394  0.66752614     0.16400
O912        O  0.47683600  0.23989725  0.67583155    -0.60500
H913        H  0.46657389  0.14215620  0.64274231     0.16400
O914        O  0.54167204  0.13104987  0.63656389    -0.60600
H915        H  0.55137195  0.12145948  0.65661195     0.43400
H916        H  0.47829355  0.23970741  0.69967011     0.43400
C917        C  0.77499964  0.09662729  0.47453984    -0.05700
C918        C  0.74017458  0.11383218  0.47099807    -0.33100
C919        C  0.72696947  0.13247865  0.49585480     0.36100
C920        C  0.74887978  0.13451399  0.52459219    -0.06100
C921        C  0.78419173  0.11815334  0.52801092    -0.33000
C922        C  0.79718913  0.09907573  0.50338921     0.36000
H923        H  0.72338972  0.11330899  0.44870217     0.16400
O924        O  0.69276647  0.14892532  0.49182534    -0.60500
H925        H  0.80067575  0.11898730  0.55045437     0.16400
O926        O  0.83150396  0.08287518  0.50791002    -0.60600
H927        H  0.82319518  0.06423127  0.51873569     0.43400
H928        H  0.67094944  0.13439547  0.49433029     0.43400
Fe929      Fe  0.66647753  0.72166692  0.62421247     1.65800
Fe930      Fe  0.64786139  0.65331305  0.59185077     1.73200
Fe931      Fe  0.74021869  0.67006314  0.61870983     1.54400
O932        O  0.76414927  0.71345637  0.61696241    -0.81900
O933        O  0.66146044  0.61947350  0.62376073    -0.80200
O934        O  0.71307440  0.74069211  0.60117613    -0.84400
O935        O  0.69997093  0.71975590  0.66827878    -0.79300
O936        O  0.74749138  0.66231944  0.57017744    -0.81000
O937        O  0.59975485  0.66598296  0.61969979    -0.83800
C938        C  0.72478970  0.70104914  0.68103757     0.97000
C939        C  0.74845962  0.73873707  0.61085692     1.04400
O940        O  0.68437044  0.68154800  0.61227115    -1.12800
O941        O  0.63300541  0.68343762  0.55636344    -0.75200
O942        O  0.63519575  0.72814802  0.58020749    -0.78700
O943        O  0.73479514  0.67672138  0.66702032    -0.79400
C944        C  0.62890421  0.71167797  0.55530555     0.95900
O945        O  0.61597457  0.70682587  0.64766522    -0.77300
O946        O  0.69095579  0.63738887  0.56160786    -0.82500
C947        C  0.69636327  0.60881718  0.62660992     0.98500
C948        C  0.72609642  0.64422171  0.55395755     1.04400
O949        O  0.72695622  0.62503250  0.62375529    -0.78200
C950        C  0.59162517  0.68619085  0.64037690     1.02700
Fe951      Fe  0.85170582  0.51656406  0.36098832     1.65800
Fe952      Fe  0.85983707  0.57857747  0.40677756     1.73200
Fe953      Fe  0.76949311  0.55741061  0.37652479     1.54400
O954        O  0.77057960  0.54512509  0.32831910    -0.81900
O955        O  0.82233734  0.57722250  0.44488720    -0.80200
O956        O  0.83242516  0.53067037  0.31500198    -0.84400
O957        O  0.80265002  0.48990674  0.36266924    -0.79300
O958        O  0.77676317  0.60187783  0.36375401    -0.81000
O959        O  0.89128151  0.54386925  0.42839248    -0.83800
C960        C  0.76919924  0.49008779  0.37625133     0.97000
C961        C  0.79645891  0.53770606  0.30738963     1.04400
O962        O  0.82681863  0.55137516  0.38103917    -1.12800
O963        O  0.90181140  0.58330803  0.37143009    -0.75200
O964        O  0.90707949  0.53614599  0.35585066    -0.78700
O965        O  0.75519970  0.51368631  0.38930327    -0.79400
C966        C  0.92204532  0.56190882  0.35970799     0.95900
O967        O  0.86727284  0.50179541  0.40730433    -0.77300
O968        O  0.83128680  0.61648155  0.39002236    -0.82500
C969        C  0.78494956  0.57758148  0.44693741     0.98500
C970        C  0.80002563  0.62224599  0.37395089     1.04400
O971        O  0.76210930  0.57081129  0.42365718    -0.78200
C972        C  0.88284370  0.51628152  0.43084077     1.02700
Fe973      Fe  0.35056611  0.74126350  0.65029071     1.65800
Fe974      Fe  0.36296158  0.68011693  0.60372813     1.73200
Fe975      Fe  0.27209795  0.69793367  0.63394272     1.54400
O976        O  0.27248906  0.71144670  0.68172443    -0.81900
O977        O  0.32559850  0.68119492  0.56526997    -0.80200
O978        O  0.33396072  0.72561792  0.69587180    -0.84400
O979        O  0.29875891  0.76593635  0.64975285    -0.79300
O980        O  0.28324151  0.65411241  0.64804574    -0.81000
O981        O  0.39146738  0.71669647  0.58323497    -0.83800
C982        C  0.26633728  0.76499898  0.63439195     0.97000
C983        C  0.29818044  0.71851765  0.70298100     1.04400
O984        O  0.32845612  0.70579615  0.62979028    -1.12800
O985        O  0.40463469  0.67612274  0.63994820    -0.75200
O986        O  0.40802060  0.72359528  0.65475633    -0.78700
O987        O  0.25532424  0.74126912  0.61984769    -0.79400
C988        C  0.42388790  0.69778054  0.65189932     0.95900
O989        O  0.36259089  0.75726735  0.60410516    -0.77300
O990        O  0.33635184  0.64076554  0.61907285    -0.82500
C991        C  0.28878544  0.67631378  0.56396726     0.98500
C992        C  0.30621333  0.63417769  0.63595082     1.04400
O993        O  0.26562470  0.68203176  0.58733199    -0.78200
C994        C  0.37869773  0.74353134  0.58032590     1.02700
Fe995      Fe  0.16666062  0.53762859  0.38379575     1.65800
Fe996      Fe  0.14913087  0.60518338  0.41899925     1.73200
Fe997      Fe  0.23996925  0.58853605  0.38924875     1.54400
O998        O  0.26375658  0.54486968  0.38805942    -0.81900
O999        O  0.16167980  0.64006739  0.38838801    -0.80200
O1000       O  0.21434185  0.51705796  0.40457639    -0.84400
O1001       O  0.19793186  0.54088860  0.33899253    -0.79300
O1002       O  0.24972354  0.59290954  0.43798022    -0.81000
O1003       O  0.09968376  0.59456492  0.39149090    -0.83800
C1004       C  0.22111710  0.56017521  0.32593187     0.97000
C1005       C  0.24940682  0.51953066  0.39477357     1.04400
O1006       O  0.18466572  0.57724512  0.39670124    -1.12800
O1007       O  0.13522748  0.57407533  0.45290379    -0.75200
O1008       O  0.13791734  0.52972988  0.42830211    -0.78700
O1009       O  0.23149584  0.58412064  0.34054473    -0.79400
C1010       C  0.13212709  0.54584288  0.45351443     0.95900
O1011       O  0.11488002  0.55379230  0.36265354    -0.77300
O1012       O  0.19376251  0.61809451  0.44986300    -0.82500
C1013       C  0.19620825  0.65100012  0.38698783     0.98500
C1014       C  0.22902845  0.60970944  0.45643072     1.04400
O1015       O  0.22715273  0.63450810  0.38828986    -0.78200
C1016       C  0.09065809  0.57445688  0.37099340     1.02700
Fe1017     Fe  0.15272546  0.99057915  0.64873708     1.65800
Fe1018     Fe  0.14122568  0.93138535  0.59934455     1.73200
Fe1019     Fe  0.23241955  0.94802097  0.62989388     1.54400
O1020       O  0.24868576  0.99204300  0.61892218    -0.81900
O1021       O  0.16933904  0.89152244  0.61163238    -0.80200
O1022       O  0.20331758  0.01551246  0.64819916    -0.84400
O1023       O  0.17211101  0.97380703  0.69366150    -0.79300
O1024       O  0.23788891  0.93523218  0.58233082    -0.81000
O1025       O  0.10108881  0.92525748  0.63576716    -0.83800
C1026       C  0.20828521  0.96621067  0.70002576     0.97000
C1027       C  0.23633321  0.01528302  0.63391276     1.04400
O1028       O  0.17564519  0.95607733  0.62648756    -1.12800
O1029       O  0.11009185  0.96820776  0.58201104    -0.75200
O1030       O  0.13840888  0.00839865  0.60332989    -0.78700
O1031       O  0.23298575  0.95892923  0.67818892    -0.79400
C1032       C  0.12237004  0.99491235  0.57942076     0.95900
O1033       O  0.09613685  0.97196375  0.65330186    -0.77300
O1034       O  0.17741749  0.93511390  0.56067477    -0.82500
C1035       C  0.19958124  0.88415025  0.62827189     0.98500
C1036       C  0.21446939  0.93099566  0.55873289     1.04400
O1037       O  0.22246574  0.90340564  0.64128663    -0.78200
C1038       C  0.08125126  0.94613661  0.64906244     1.02700
Fe1039     Fe  0.33479487  0.78732794  0.38151918     1.65800
Fe1040     Fe  0.35225438  0.85593170  0.41410113     1.73200
Fe1041     Fe  0.26168480  0.83968415  0.38410944     1.54400
O1042       O  0.26902151  0.83245433  0.33601329    -0.81900
O1043       O  0.30788967  0.87283999  0.44191476    -0.80200
O1044       O  0.30514929  0.78983383  0.33601807    -0.84400
O1045       O  0.28671903  0.76743189  0.40156753    -0.79300
O1046       O  0.27632676  0.88461176  0.37909688    -0.81000
O1047       O  0.36295236  0.82573549  0.45032801    -0.83800
C1048       C  0.25076812  0.77123537  0.39415905     0.97000
C1049       C  0.28108837  0.80847874  0.32233710     1.04400
O1050       O  0.31672085  0.82771604  0.39246706    -1.12800
O1051       O  0.40210043  0.84250224  0.38912913    -0.75200
O1052       O  0.38675565  0.80185302  0.36065457    -0.78700
O1053       O  0.23704849  0.79667876  0.38609321    -0.79400
C1054       C  0.41104699  0.82207192  0.36900821     0.95900
O1055       O  0.36230935  0.78062357  0.42708863    -0.77300
O1056       O  0.34175987  0.88993067  0.38143115    -0.82500
C1057       C  0.27283681  0.86573677  0.44928621     0.98500
C1058       C  0.30713645  0.90078993  0.37706844     1.04400
O1059       O  0.25221682  0.84752465  0.43256323    -0.78200
C1060       C  0.36598196  0.79744754  0.45204087     1.02700
Fe1061     Fe  0.83811180  0.96946529  0.62743155     1.65800
Fe1062     Fe  0.85440631  0.90073741  0.59508157     1.73200
Fe1063     Fe  0.76271619  0.92014568  0.62072691     1.54400
O1064       O  0.76692200  0.92697054  0.66914305    -0.81900
O1065       O  0.81091263  0.88479576  0.56574399    -0.80200
O1066       O  0.80564258  0.96768363  0.67157632    -0.84400
O1067       O  0.79192019  0.99009112  0.60470371    -0.79300
O1068       O  0.77554668  0.87485105  0.62635261    -0.81000
O1069       O  0.86782985  0.93065478  0.55938171    -0.83800
C1070       C  0.75628539  0.98897600  0.61339994     0.97000
C1071       C  0.77951138  0.95017593  0.68377242     1.04400
O1072       O  0.81889714  0.92996774  0.61540426    -1.12800
O1073       O  0.90361914  0.91287604  0.62157646    -0.75200
O1074       O  0.88876321  0.95340981  0.65053188    -0.78700
O1075       O  0.73967724  0.96408873  0.61849695    -0.79400
C1076       C  0.91292405  0.93278585  0.64210627     0.95900
O1077       O  0.86844897  0.97544617  0.58320435    -0.77300
O1078       O  0.84088646  0.86736540  0.62751500    -0.82500
C1079       C  0.77642421  0.89257112  0.55691414     0.98500
C1080       C  0.80561293  0.85769386  0.63005650     1.04400
O1081       O  0.75621628  0.91250602  0.57189402    -0.78200
C1082       C  0.87260517  0.95879003  0.55813756     1.02700
Fe1083     Fe  0.65088123  0.76921284  0.35879259     1.65800
Fe1084     Fe  0.63878316  0.83067227  0.40476131     1.73200
Fe1085     Fe  0.73138370  0.80871730  0.38017517     1.54400
O1086       O  0.74531903  0.76395522  0.39025781    -0.81900
O1087       O  0.66648112  0.86903680  0.38906195    -0.80200
O1088       O  0.70017423  0.74263108  0.35954247    -0.84400
O1089       O  0.67192825  0.78557181  0.31430154    -0.79300
O1090       O  0.73532073  0.81938914  0.42837301    -0.81000
O1091       O  0.59899662  0.83501845  0.36752648    -0.83800
C1092       C  0.70826189  0.79304799  0.30899769     0.97000
C1093       C  0.73283683  0.74155314  0.37427762     1.04400
O1094       O  0.67400617  0.80347407  0.38091614    -1.12800
O1095       O  0.60870295  0.79491476  0.42522454    -0.75200
O1096       O  0.63505585  0.75301290  0.40462419    -0.78700
O1097       O  0.73261209  0.79937651  0.33154108    -0.79400
C1098       C  0.61921787  0.76752465  0.42815648     0.95900
O1099       O  0.59460932  0.78777532  0.35303588    -0.77300
O1100       O  0.67389665  0.83059649  0.44423353    -0.82500
C1101       C  0.70016575  0.87448441  0.37691078     0.98500
C1102       C  0.71072678  0.82879219  0.44932416     1.04400
O1103       O  0.72538884  0.85398701  0.37008048    -0.78200
C1104       C  0.57920455  0.81361127  0.35602534     1.02700
Fe1105     Fe  0.85318621  0.73732865  0.86000898     1.65800
Fe1106     Fe  0.86297102  0.67600251  0.90542103     1.73200
Fe1107     Fe  0.77263298  0.69519119  0.87421302     1.54400
O1108       O  0.75677079  0.73892578  0.88782716    -0.81900
O1109       O  0.83459558  0.63744863  0.89056199    -0.80200
O1110       O  0.80263777  0.76332193  0.86080395    -0.84400
O1111       O  0.83579977  0.72299192  0.81375934    -0.79300
O1112       O  0.76525035  0.68065359  0.92113104    -0.81000
O1113       O  0.90407097  0.67045780  0.86930045    -0.83800
C1114       C  0.80008780  0.71608272  0.80579865     0.97000
C1115       C  0.76938372  0.76265135  0.87468447     1.04400
O1116       O  0.82938524  0.70220398  0.87923180    -1.12800
O1117       O  0.89429931  0.71125823  0.92586425    -0.75200
O1118       O  0.86614796  0.75253461  0.90683523    -0.78700
O1119       O  0.77415005  0.70816474  0.82625140    -0.79400
C1120       C  0.88250823  0.73812314  0.92995421     0.95900
O1121       O  0.90969118  0.71788213  0.85539030    -0.77300
O1122       O  0.82553482  0.67911933  0.94344819    -0.82500
C1123       C  0.80424963  0.63077197  0.87386511     0.98500
C1124       C  0.78845928  0.67532431  0.94469284     1.04400
O1125       O  0.78211322  0.65063368  0.86072654    -0.78200
C1126       C  0.92434746  0.69163244  0.85787949     1.02700
Fe1127     Fe  0.66767956  0.53669655  0.12326761     1.65800
Fe1128     Fe  0.64759280  0.60592403  0.09408437     1.73200
Fe1129     Fe  0.74035885  0.58797217  0.11926026     1.54400
O1130       O  0.73725185  0.57943018  0.16747005    -0.81900
O1131       O  0.68998457  0.62365703  0.06472403    -0.80200
O1132       O  0.70128062  0.53731138  0.16715189    -0.84400
O1133       O  0.71362960  0.51738602  0.09882492    -0.79300
O1134       O  0.72611332  0.63300591  0.12702807    -0.81000
O1135       O  0.63458630  0.57683386  0.05695199    -0.83800
C1136       C  0.74987389  0.51966807  0.10569481     0.97000
C1137       C  0.72611789  0.55528867  0.18073306     1.04400
O1138       O  0.68473716  0.57702737  0.11313054    -1.12800
O1139       O  0.59931814  0.59176705  0.12073686    -0.75200
O1140       O  0.61766910  0.55110344  0.14784674    -0.78700
O1141       O  0.76457503  0.54454780  0.11435715    -0.79400
C1142       C  0.59203832  0.57102357  0.14064273     0.95900
O1143       O  0.63601360  0.53173075  0.07943421    -0.77300
O1144       O  0.66037464  0.63849860  0.12798382    -0.82500
C1145       C  0.72441750  0.61605200  0.05545906     0.98500
C1146       C  0.69509642  0.64915597  0.13087410     1.04400
O1147       O  0.74563564  0.59690955  0.07063986    -0.78200
C1148       C  0.63085608  0.54863853  0.05493467     1.02700
Fe1149     Fe  0.16710484  0.71750258  0.88241040     1.65800
Fe1150     Fe  0.15198202  0.64919005  0.91523779     1.73200
Fe1151     Fe  0.24334138  0.66791269  0.89006500     1.54400
O1152       O  0.23792762  0.67251568  0.84128216    -0.81900
O1153       O  0.19550456  0.63596706  0.94684784    -0.80200
O1154       O  0.19953544  0.71394258  0.83852605    -0.84400
O1155       O  0.21350565  0.73943805  0.90361050    -0.79300
O1156       O  0.23289350  0.62207070  0.88776147    -0.81000
O1157       O  0.13482114  0.67983754  0.94939606    -0.83800
C1158       C  0.24933612  0.73701373  0.89535682     0.97000
C1159       C  0.22596008  0.69596858  0.82663756     1.04400
O1160       O  0.18698427  0.67820229  0.89522912    -1.12800
O1161       O  0.10344637  0.65943957  0.88701013    -0.75200
O1162       O  0.11609816  0.70110463  0.86015414    -0.78700
O1163       O  0.26531593  0.71163715  0.89035016    -0.79400
C1164       C  0.09315095  0.67969631  0.86734808     0.95900
O1165       O  0.13699134  0.72477145  0.92653866    -0.77300
O1166       O  0.16811326  0.61495094  0.88388941    -0.82500
C1167       C  0.22972531  0.64469562  0.95549382     0.98500
C1168       C  0.20334315  0.60473184  0.88499152     1.04400
O1169       O  0.25001943  0.66315512  0.93918320    -0.78200
C1170       C  0.13065213  0.70805198  0.95090327     1.02700
Fe1171     Fe  0.35312029  0.51386374  0.14979393     1.65800
Fe1172     Fe  0.36381570  0.57521332  0.10414097     1.73200
Fe1173     Fe  0.27263918  0.55681800  0.13278738     1.54400
O1174       O  0.25713217  0.51315780  0.11951805    -0.81900
O1175       O  0.33614717  0.61406597  0.11940679    -0.80200
O1176       O  0.30306469  0.48836203  0.14698731    -0.84400
O1177       O  0.33323012  0.52884408  0.19554221    -0.79300
O1178       O  0.26650245  0.57075909  0.08579848    -0.81000
O1179       O  0.40422853  0.57958342  0.14096600    -0.83800
C1180       C  0.29787683  0.53803666  0.20243262     0.97000
C1181       C  0.26993906  0.48931907  0.13270183     1.04400
O1182       O  0.32962584  0.54910445  0.12927194    -1.12800
O1183       O  0.39459651  0.53943424  0.08347681    -0.75200
O1184       O  0.36883870  0.49794373  0.10361020    -0.78700
O1185       O  0.27256842  0.54548099  0.18101701    -0.79400
C1186       C  0.38481953  0.51210126  0.08036778     0.95900
O1187       O  0.40953116  0.53248413  0.15621118    -0.77300
O1188       O  0.32704418  0.57454417  0.06518062    -0.82500
C1189       C  0.30473590  0.62087172  0.13460439     0.98500
C1190       C  0.28977957  0.57776870  0.06316881     1.04400
O1191       O  0.28128580  0.60128919  0.14575411    -0.78200
C1192       C  0.42432020  0.55841333  0.15309157     1.02700
Fe1193     Fe  0.33906377  0.96663709  0.88338086     1.65800
Fe1194     Fe  0.35599306  0.89740154  0.91374422     1.73200
Fe1195     Fe  0.26508463  0.91623706  0.88575378     1.54400
O1196       O  0.24125361  0.95973241  0.88936814    -0.81900
O1197       O  0.34421236  0.86479385  0.87991671    -0.80200
O1198       O  0.29199074  0.98688536  0.90561596    -0.84400
O1199       O  0.30743009  0.96573475  0.83849739    -0.79300
O1200       O  0.25682587  0.90826546  0.93399936    -0.81000
O1201       O  0.40552112  0.91041653  0.88845776    -0.83800
C1202       C  0.28276381  0.94772303  0.82472964     0.97000
C1203       C  0.25573697  0.98450250  0.89852630     1.04400
O1204       O  0.32054579  0.92669543  0.89352115    -1.12800
O1205       O  0.36842715  0.92638445  0.95059043    -0.75200
O1206       O  0.36874896  0.97167499  0.92841029    -0.78700
O1207       O  0.27127066  0.92366453  0.83781506    -0.79400
C1208       C  0.37293813  0.95443958  0.95280827     0.95900
O1209       O  0.39014508  0.95130805  0.86068813    -0.77300
O1210       O  0.31155386  0.88088088  0.94186095    -0.77700
C1211       C  0.30944333  0.85441851  0.87695528     0.98500
C1212       C  0.27644427  0.88850596  0.94947930     1.04400
O1213       O  0.27873235  0.87106175  0.87956539    -0.78200
C1214       C  0.41455035  0.93074856  0.86861670     1.02700
Fe1215     Fe  0.15268626  0.76550984  0.14610025     1.65800
Fe1216     Fe  0.13903064  0.82683247  0.10073354     1.73200
Fe1217     Fe  0.23221785  0.80633990  0.12572665     1.54400
O1218       O  0.23429609  0.79656555  0.17431463    -0.81900
O1219       O  0.17345222  0.82644867  0.06063561    -0.80200
O1220       O  0.17415849  0.78134591  0.19059160    -0.84400
O1221       O  0.20232242  0.73925863  0.14365379    -0.79300
O1222       O  0.22520480  0.85162651  0.13669730    -0.81000
O1223       O  0.10797314  0.79109635  0.08073942    -0.83800
C1224       C  0.23519997  0.73904221  0.12939040     0.97000
C1225       C  0.21007851  0.78942795  0.19641396     1.04400
O1226       O  0.17498670  0.80007887  0.12441984    -1.12800
O1227       O  0.10076850  0.83112446  0.13891890    -0.75200
O1228       O  0.09674943  0.78397101  0.15354362    -0.78700
O1229       O  0.24740059  0.76189525  0.11446956    -0.79400
C1230       C  0.08177725  0.80999272  0.15160360     0.95900
O1231       O  0.13544810  0.74960379  0.10067946    -0.77300
O1232       O  0.16681831  0.86556541  0.11561083    -0.82500
C1233       C  0.21059558  0.82551868  0.05630556     0.98500
C1234       C  0.20013774  0.87168957  0.12826667     1.04400
O1235       O  0.23524317  0.81734218  0.07781720    -0.78200
C1236       C  0.11833610  0.76372683  0.07766140     1.02700
Fe1237     Fe  0.65213538  0.98810591  0.86160281     1.65800
Fe1238     Fe  0.64409126  0.92820511  0.90961290     1.73200
Fe1239     Fe  0.73321796  0.94581793  0.87751592     1.54400
O1240       O  0.73192663  0.95820128  0.82978010    -0.81900
O1241       O  0.68165887  0.93284870  0.94792231    -0.80200
O1242       O  0.67036493  0.97284456  0.81590059    -0.84400
O1243       O  0.70236959  0.01374946  0.86265634    -0.79300
O1244       O  0.72311725  0.90160833  0.86419070    -0.81000
O1245       O  0.61139565  0.96396547  0.92808774    -0.83800
C1246       C  0.73633119  0.01283892  0.87570389     0.97000
C1247       C  0.70641025  0.96601155  0.80871563     1.04400
O1248       O  0.67664932  0.95362225  0.88245507    -1.12800
O1249       O  0.60349780  0.92145405  0.87331391    -0.75200
O1250       O  0.59641793  0.96820337  0.85675586    -0.78700
O1251       O  0.74914328  0.98949724  0.88999543    -0.79400
C1252       C  0.58272823  0.94196645  0.86045520     0.95900
O1253       O  0.63768800  0.00482830  0.90741947    -0.77300
O1254       O  0.67331107  0.88894544  0.89634950    -0.82500
C1255       C  0.71862659  0.92759526  0.94870148     0.98500
C1256       C  0.70212302  0.88196038  0.87807388     1.04400
O1257       O  0.74082457  0.93156212  0.92447191    -0.78200
C1258       C  0.62127933  0.99125088  0.93077772     1.02700
Fe1259     Fe  0.83985515  0.78455054  0.12879828     1.65800
Fe1260     Fe  0.85773188  0.85189123  0.09423729     1.73200
Fe1261     Fe  0.76568632  0.83587196  0.12013316     1.54400
O1262       O  0.74158451  0.79264093  0.12123888    -0.81900
O1263       O  0.84304101  0.88730369  0.12446571    -0.80200
O1264       O  0.79204652  0.76259524  0.11023871    -0.84400
O1265       O  0.80971892  0.79078548  0.17352454    -0.79300
O1266       O  0.75882893  0.84027076  0.07083081    -0.81000
O1267       O  0.90550966  0.84168087  0.12309746    -0.83800
C1268       C  0.78427831  0.80985072  0.18494791     0.97000
C1269       C  0.75623840  0.76656317  0.11776520     1.04400
O1270       O  0.82148732  0.82404560  0.11494484    -1.12800
O1271       O  0.87356543  0.82005629  0.06090481    -0.75200
O1272       O  0.86718961  0.77527723  0.08362371    -0.78700
O1273       O  0.77141264  0.83228176  0.16899189    -0.79400
C1274       C  0.87441834  0.79170239  0.05912996     0.95900
O1275       O  0.89208169  0.79995605  0.14941781    -0.77300
O1276       O  0.81483830  0.86544392  0.06229162    -0.82500
C1277       C  0.80817712  0.89818064  0.12323541     0.98500
C1278       C  0.77976969  0.85822796  0.05430147     1.04400
O1279       O  0.77800303  0.88142537  0.12121895    -0.78200
C1280       C  0.91506317  0.82143046  0.14293293     1.02700
C1281       C  0.73525925  0.91290169  0.97760500    -0.05700
C1282       C  0.70907645  0.90118993  0.00056603    -0.33100
C1283       C  0.72267077  0.88194183  0.02466386     0.36100
C1284       C  0.76310615  0.87412012  0.02630299    -0.06100
C1285       C  0.78945996  0.88650448  0.00394380    -0.33000
C1286       C  0.77602393  0.90590440  0.98004880     0.36000
H1287       H  0.67760300  0.90626840  0.99944946     0.16400
O1288       O  0.69648746  0.87217465  0.04737357    -0.60500
H1289       H  0.82096862  0.88156283  0.00530713     0.16400
O1290       O  0.80304587  0.91736768  0.95894221    -0.60600
H1291       H  0.80949846  0.93752189  0.96755960     0.43400
H1292       H  0.68535845  0.85340214  0.03835640     0.43400
C1293       C  0.95614186  0.82156075  0.15625203    -0.05700
C1294       C  0.97320775  0.79481724  0.16780458    -0.33100
C1295       C  0.01461293  0.79139010  0.16989118     0.36100
C1296       C  0.03957647  0.81516283  0.16074143    -0.06100
C1297       C  0.02213319  0.84317602  0.15418496    -0.33000
C1298       C  0.98098039  0.84650474  0.15184973     0.36000
H1299       H  0.95479198  0.77554808  0.17236996     0.16400
O1300       O  0.03016685  0.76413971  0.17881929    -0.60500
H1301       H  0.04040624  0.86213141  0.14805784     0.16400
O1302       O  0.96575394  0.87363811  0.14228714    -0.60600
H1303       H  0.95945511  0.88452069  0.16250214     0.43400
H1304       H  0.02775542  0.75108718  0.15948263     0.43400
C1305       C  0.54008739  0.93618629  0.85290035    -0.05700
C1306       C  0.51516184  0.96003422  0.84327003    -0.33100
C1307       C  0.47366417  0.95782552  0.84516630     0.36100
C1308       C  0.45627814  0.93133794  0.85677279    -0.06100
C1309       C  0.48107823  0.90637995  0.86239301    -0.33000
C1310       C  0.52239690  0.90852907  0.86040739     0.36000
H1311       H  0.52775357  0.98132403  0.83652803     0.16400
O1312       O  0.45074645  0.98240110  0.83769839    -0.60500
H1313       H  0.46860081  0.88546134  0.87047369     0.16400
O1314       O  0.54504591  0.88402604  0.86857321    -0.60600
H1315       H  0.54940991  0.87299191  0.84809076     0.43400
H1316       H  0.45144587  0.99538044  0.85714977     0.43400
C1317       C  0.25832337  0.87207376  0.97623300    -0.05700
C1318       C  0.28107344  0.84979842  0.99184458    -0.33100
C1319       C  0.26528050  0.83300620  0.01669199     0.36100
C1320       C  0.22582645  0.83797733  0.02621517    -0.06100
C1321       C  0.20256518  0.85946505  0.00992399    -0.33000
C1322       C  0.21854293  0.87657753  0.98529071     0.36000
H1323       H  0.31161361  0.84540651  0.98513789     0.16400
O1324       O  0.28874012  0.81187512  0.03153458    -0.60500
H1325       H  0.17233988  0.86418979  0.01731668     0.16400
O1326       O  0.19535820  0.89824546  0.97112938    -0.60600
H1327       H  0.18006308  0.88764139  0.95419865     0.43400
H1328       H  0.30637368  0.82331791  0.04621721     0.43400
C1329       C  0.38139436  0.96695562  0.98576344    -0.05700
C1330       C  0.40032187  0.99460318  0.98988664    -0.33100
C1331       C  0.39102279  0.51450854  0.01929901     0.36100
C1332       C  0.39032372  0.49732506  0.04793164    -0.06100
C1333       C  0.39066834  0.46598106  0.04471245    -0.33000
C1334       C  0.36869520  0.95174268  0.01373703     0.36000
H1335       H  0.41127856  0.00640544  0.96909566     0.16400
O1336       O  0.39164940  0.54521782  0.02068679    -0.60500
H1337       H  0.39081011  0.45213634  0.06602006     0.16400
O1338       O  0.34980693  0.92469358  0.01141291    -0.60600
H1339       H  0.37079710  0.90937883  0.01523946     0.43400
H1340       H  0.36474073  0.55179269  0.01390430     0.43400
C1341       C  0.21151507  0.90358653  0.13137316    -0.05700
C1342       C  0.23342010  0.91296330  0.15816698    -0.33100
C1343       C  0.25017874  0.94151408  0.15930318     0.36100
C1344       C  0.24564111  0.96143775  0.13309601    -0.06100
C1345       C  0.22180714  0.95267320  0.10695750    -0.33000
C1346       C  0.20478361  0.92399470  0.10596155     0.36000
H1347       H  0.23849550  0.89777045  0.17802990     0.16400
O1348       O  0.27113170  0.94972618  0.18629701    -0.60500
H1349       H  0.22067608  0.46802821  0.08537259     0.16400
O1350       O  0.18466410  0.91521507  0.07877182    -0.60600
H1351       H  0.15688559  0.92194267  0.08220108     0.43400
H1352       H  0.29697678  0.93901262  0.18466277     0.43400
C1353       C  0.29320469  0.65293718  0.13636915    -0.05700
C1354       C  0.30153352  0.67169032  0.11007266    -0.33100
C1355       C  0.28429651  0.70039143  0.10763020     0.36100
C1356       C  0.25885670  0.71091719  0.13200382    -0.06100
C1357       C  0.25288586  0.69284739  0.15925797    -0.33000
C1358       C  0.26954382  0.66415907  0.16147296     0.36000
H1359       H  0.31938763  0.66335862  0.09026228     0.16400
O1360       O  0.29072308  0.71710317  0.08061465    -0.60500
H1361       H  0.23405257  0.70065183  0.17871297     0.16400
O1362       O  0.26126878  0.64689734  0.18774471    -0.60600
H1363       H  0.28207632  0.65188379  0.20382542     0.43400
H1364       H  0.27173408  0.70938212  0.06431944     0.43400
C1365       C  0.23665325  0.51235885  0.89957131    -0.05700
C1366       C  0.21031083  0.51955127  0.87419604    -0.33100
C1367       C  0.19743152  0.54942646  0.86934220     0.36100
C1368       C  0.21120427  0.57234165  0.88986862    -0.06100
C1369       C  0.23494571  0.56460505  0.91641763    -0.33000
C1370       C  0.24749636  0.53514967  0.92144610     0.36000
H1371       H  0.20195717  0.50247622  0.85685415     0.16400
O1372       O  0.17338209  0.55614252  0.84364427    -0.60500
H1373       H  0.24487964  0.58176426  0.93309054     0.16400
O1374       O  0.27140655  0.52894273  0.94746911    -0.60600
H1375       H  0.29774795  0.53733041  0.94218018     0.43400
H1376       H  0.19169341  0.55967315  0.82549121     0.43400
C1377       C  0.27042087  0.76476318  0.88698117    -0.05700
C1378       C  0.30609301  0.77318989  0.90188800    -0.33100
C1379       C  0.32213596  0.80173414  0.89620792     0.36100
C1380       C  0.30272644  0.82176535  0.87491205    -0.06100
C1381       C  0.26922085  0.81195478  0.85802595    -0.33000
C1382       C  0.25314242  0.78385656  0.86385861     0.36000
H1383       H  0.32005806  0.75853528  0.91934949     0.16400
O1384       O  0.35476392  0.81068412  0.91350362    -0.60500
H1385       H  0.25378118  0.82697696  0.84173156     0.16400
O1386       O  0.21912450  0.77579782  0.84789534    -0.60600
H1387       H  0.22775534  0.77045771  0.82579644     0.43400
H1388       H  0.34408525  0.81914023  0.93386553     0.43400
C1389       C  0.12052403  0.72137933  0.98323226    -0.05700
C1390       C  0.10834324  0.75144679  0.98645758    -0.33100
C1391       C  0.10438570  0.76505414  0.01706296     0.36100
C1392       C  0.11288723  0.74864296  0.04550938    -0.06100
C1393       C  0.12245524  0.71815793  0.04219725    -0.33000
C1394       C  0.12647763  0.70462957  0.01182661     0.36000
H1395       H  0.10312067  0.76483129  0.96518294     0.16400
O1396       O  0.09354931  0.79473531  0.01867052    -0.60500
H1397       H  0.12905822  0.70486960  0.06330601     0.16400
O1398       O  0.13865367  0.67524521  0.01065041    -0.60600
H1399       H  0.16798915  0.67590680  0.01254481     0.43400
H1400       H  0.11785398  0.80599185  0.01329655     0.43400
C1401       C  0.27365342  0.59329693  0.03459663    -0.05700
C1402       C  0.30021111  0.60510958  0.01193621    -0.33100
C1403       C  0.28679493  0.62347195  0.98703399     0.36100
C1404       C  0.24620203  0.63037201  0.98436922    -0.06100
C1405       C  0.21969814  0.61883775  0.00704279    -0.33000
C1406       C  0.23300441  0.60075311  0.03208719     0.36000
H1407       H  0.33175877  0.60059363  0.01368224     0.16400
O1408       O  0.31347648  0.63374824  0.96496478    -0.60500
H1409       H  0.18815880  0.62342096  0.00508855     0.16400
O1410       O  0.20584863  0.59055984  0.05384040    -0.60600
H1411       H  0.20200239  0.60730801  0.06939993     0.43400
H1412       H  0.31426704  0.61823237  0.94779420     0.43400
C1413       C  0.70105831  0.68185661  0.13449081    -0.05700
C1414       C  0.73191264  0.69195177  0.15435500    -0.33100
C1415       C  0.74782856  0.72051487  0.15033780     0.36100
C1416       C  0.73320353  0.73957707  0.12595649    -0.06100
C1417       C  0.69993068  0.73071722  0.10803228    -0.33000
C1418       C  0.68374476  0.70201322  0.11223485     0.36000
H1419       H  0.74554640  0.67688321  0.17160205     0.16400
O1420       O  0.77873061  0.72931601  0.16973515    -0.60500
H1421       H  0.68828310  0.74512708  0.08929736     0.16400
O1422       O  0.65418273  0.69267633  0.09183967    -0.60600
H1423       H  0.62919062  0.69627198  0.10380957     0.43400
H1424       H  0.80274022  0.71971376  0.16039684     0.43400
C1425       C  0.77427291  0.98988500  0.10713803    -0.05700
C1426       C  0.79887512  0.98298448  0.13370127    -0.33100
C1427       C  0.81233632  0.95337315  0.13895353     0.36100
C1428       C  0.80133839  0.93049587  0.11735100    -0.06100
C1429       C  0.77966981  0.93806720  0.08957857    -0.33000
C1430       C  0.76599881  0.96726096  0.08445019     0.36000
H1431       H  0.79927202  0.50066823  0.15342510     0.16400
O1432       O  0.83378935  0.94679110  0.16614692    -0.60500
H1433       H  0.77159062  0.92088527  0.07234621     0.16400
O1434       O  0.74324355  0.97329640  0.05772883    -0.60600
H1435       H  0.71695408  0.96441661  0.06206592     0.43400
H1436       H  0.81382376  0.94101150  0.18238929     0.43400
C1437       C  0.61569328  0.00675260  0.96268870    -0.05700
C1438       C  0.62533240  0.03712414  0.96602882    -0.33100
C1439       C  0.62714793  0.55162599  0.99347515     0.36100
C1440       C  0.62249538  0.53506359  0.02229392    -0.06100
C1441       C  0.61375151  0.50445370  0.01934468    -0.33000
C1442       C  0.60614255  0.99070771  0.99099755     0.36000
H1443       H  0.63261271  0.05014562  0.94499728     0.16400
O1444       O  0.63482835  0.58176092  0.99444267    -0.60500
H1445       H  0.60987763  0.49107901  0.04073228     0.16400
O1446       O  0.59605044  0.96103337  0.98946785    -0.60600
H1447       H  0.56669278  0.96099260  0.98769232     0.43400
H1448       H  0.66414653  0.58331675  0.99339843     0.43400
C1449       C  0.55093146  0.56888280  0.15354866    -0.05700
C1450       C  0.52606031  0.59432653  0.15339603    -0.33100
C1451       C  0.48479428  0.59174349  0.15667064     0.36100
C1452       C  0.46739303  0.56322116  0.16006856    -0.06100
C1453       C  0.49274546  0.53826605  0.16409119    -0.33000
C1454       C  0.53403726  0.54086082  0.16075565     0.36000
H1455       H  0.53835629  0.61621771  0.14875288     0.16400
O1456       O  0.46168543  0.61717661  0.15504228    -0.60500
H1457       H  0.48046345  0.51612828  0.16717197     0.16400
O1458       O  0.55706807  0.51537460  0.16194016    -0.60600
H1459       H  0.55654991  0.50701762  0.13977447     0.43400
H1460       H  0.46070068  0.62250102  0.13191862     0.43400
C1461       C  0.88134818  0.77828721  0.02617502    -0.05700
C1462       C  0.89303157  0.74821672  0.02186813    -0.33100
C1463       C  0.89569275  0.73525037  0.99078093     0.36100
C1464       C  0.88622164  0.75223708  0.96288803    -0.06100
C1465       C  0.87548554  0.78239389  0.96731302    -0.33000
C1466       C  0.87323476  0.79539140  0.99811459     0.36000
H1467       H  0.89944956  0.73447620  0.04266953     0.16400
O1468       O  0.90660270  0.70565477  0.98816903    -0.60500
H1469       H  0.86749432  0.79600071  0.94674928     0.16400
O1470       O  0.86028614  0.82455502  0.00038001    -0.60600
H1471       H  0.88426306  0.83686571  0.99704213     0.43400
H1472       H  0.88223322  0.69427888  0.99290598     0.43400
C1473       C  0.74578645  0.79092224  0.87427238    -0.05700
C1474       C  0.74927012  0.80977073  0.84740290    -0.33100
C1475       C  0.73340245  0.83886884  0.84756225     0.36100
C1476       C  0.71327630  0.84976658  0.87485154    -0.06100
C1477       C  0.70747028  0.83024600  0.90097080    -0.33000
C1478       C  0.72343839  0.80100586  0.90077052     0.36000
H1479       H  0.76552432  0.80219665  0.82637482     0.16400
O1480       O  0.73769300  0.85646321  0.82087844    -0.60500
H1481       H  0.69232362  0.83818541  0.92237620     0.16400
O1482       O  0.71975081  0.78350492  0.92755157    -0.60600
H1483       H  0.69482604  0.77225444  0.92416858     0.43400
H1484       H  0.76543412  0.86364034  0.82174052     0.43400
C1485       C  0.76023572  0.54020935  0.87211868    -0.05700
C1486       C  0.78503563  0.54964729  0.89726471    -0.33100
C1487       C  0.80119967  0.57858102  0.89731549     0.36100
C1488       C  0.79285324  0.59865653  0.87176976    -0.06100
C1489       C  0.76988278  0.58853114  0.84584254    -0.33000
C1490       C  0.75386706  0.55969867  0.84572634     0.36000
H1491       H  0.79014679  0.53524223  0.91777491     0.16400
O1492       O  0.82227653  0.58780192  0.92383284    -0.60500
H1493       H  0.76343803  0.60328566  0.82585044     0.16400
O1494       O  0.73184569  0.55077190  0.81954129    -0.60600
H1495       H  0.70569923  0.56092082  0.82198188     0.43400
H1496       H  0.85008391  0.58160888  0.91954623     0.43400
C1497       C  0.96736097  0.68627777  0.85077847    -0.05700
C1498       C  0.98480302  0.65859079  0.85894742    -0.33100
C1499       C  0.02608579  0.65511988  0.86112841     0.36100
C1500       C  0.05127786  0.67965107  0.85525457    -0.06100
C1501       C  0.03410013  0.70616280  0.84318251    -0.33000
C1502       C  0.99263193  0.70964261  0.84099190     0.36000
H1503       H  0.96641863  0.63995181  0.86589237     0.16400
O1504       O  0.04116418  0.62819275  0.87148897    -0.60500
H1505       H  0.05259019  0.72518870  0.83776886     0.16400
O1506       O  0.97726918  0.73652709  0.83074588    -0.60600
H1507       H  0.97930277  0.75023153  0.84954047     0.43400
H1508       H  0.04803863  0.61695674  0.85157745     0.43400
C1509       C  0.77255294  0.66171115  0.97396010    -0.05700
C1510       C  0.73321186  0.66710128  0.98294252    -0.33100
C1511       C  0.71691050  0.65220804  0.00911098     0.36100
C1512       C  0.74015225  0.63122268  0.02673960    -0.06100
C1513       C  0.77937830  0.62568842  0.01735043    -0.33000
C1514       C  0.79565153  0.64071796  0.99134348     0.36000
H1515       H  0.71495549  0.68284541  0.96957763     0.16400
O1516       O  0.67836511  0.65871342  0.01730395    -0.60500
H1517       H  0.79771677  0.60962414  0.03016903     0.16400
O1518       O  0.83350728  0.63333517  0.98194534    -0.60600
H1519       H  0.85116191  0.64382269  0.99732666     0.43400
H1520       H  0.66192405  0.64551710  0.00345377     0.43400
C1521       C  0.72534047  0.79458484  0.27601568    -0.05700
C1522       C  0.76524304  0.78545701  0.27148794    -0.33100
C1523       C  0.78506295  0.79018084  0.24228631     0.36100
C1524       C  0.76540240  0.80481734  0.21689441    -0.06100
C1525       C  0.72539235  0.81373552  0.22135551    -0.33000
C1526       C  0.70546120  0.80870909  0.25045774     0.36000
H1527       H  0.78149341  0.77497987  0.29103394     0.16400
O1528       O  0.82417798  0.78182868  0.23948828    -0.60500
H1529       H  0.70925541  0.82466255  0.20204986     0.16400
O1530       O  0.66711498  0.81869465  0.25398479    -0.60600
H1531       H  0.66934441  0.83949086  0.26230501     0.43400
H1532       H  0.82382022  0.76002459  0.23480458     0.43400
C1533       C  0.72149691  0.96688430  0.77516457    -0.05700
C1534       C  0.76050927  0.97704295  0.76994017    -0.33100
C1535       C  0.77965634  0.97266236  0.74026665     0.36100
C1536       C  0.76012436  0.95742323  0.71518035    -0.06100
C1537       C  0.72026772  0.94880234  0.71992342    -0.33000
C1538       C  0.70087395  0.95378158  0.74937129     0.36000
H1539       H  0.77681671  0.98756732  0.78944425     0.16400
O1540       O  0.81783802  0.98238237  0.73651553    -0.60500
H1541       H  0.70403789  0.93777646  0.70071783     0.16400
O1542       O  0.66286181  0.94379180  0.75331281    -0.60600
H1543       H  0.64555982  0.96094362  0.74713588     0.43400
H1544       H  0.83476551  0.96718487  0.74734753     0.43400
C1545       C  0.75946737  0.87588628  0.52957231    -0.05700
C1546       C  0.71871528  0.87766718  0.52346665    -0.33100
C1547       C  0.70176643  0.86090716  0.49868221     0.36100
C1548       C  0.72574255  0.84147729  0.47970269    -0.06100
C1549       C  0.76620622  0.83878419  0.48673094    -0.33000
C1550       C  0.78326760  0.85597518  0.51100193     0.36000
H1551       H  0.69981399  0.89227963  0.53775478     0.16400
O1552       O  0.66196276  0.86464048  0.49263727    -0.60500
H1553       H  0.78524238  0.82426628  0.47243510     0.16400
O1554       O  0.82342397  0.85321351  0.51599030    -0.60600
H1555       H  0.83560966  0.86764313  0.50102627     0.43400
H1556       H  0.65993762  0.88258269  0.47874871     0.43400
C1557       C  0.22610320  0.79094811  0.22977235    -0.05700
C1558       C  0.26585295  0.78210618  0.23554620    -0.33100
C1559       C  0.28416803  0.78695494  0.26557188     0.36100
C1560       C  0.26312827  0.80155719  0.29032542    -0.06100
C1561       C  0.22307389  0.80970137  0.28472629    -0.33000
C1562       C  0.20448244  0.80416105  0.25500506     0.36000
H1563       H  0.28306091  0.77179616  0.21641341     0.16400
O1564       O  0.32286799  0.77810769  0.27006645    -0.60500
H1565       H  0.20595313  0.82050235  0.30359651     0.16400
O1566       O  0.16603746  0.81353862  0.25029188    -0.60600
H1567       H  0.14954930  0.79597617  0.25561822     0.43400
H1568       H  0.33883382  0.79620381  0.26593546     0.43400
C1569       C  0.45241911  0.82099213  0.35689004    -0.05700
C1570       C  0.47548948  0.84707284  0.35797081    -0.33100
C1571       C  0.51676535  0.84563174  0.35435148     0.36100
C1572       C  0.53593464  0.81764341  0.34980034    -0.06100
C1573       C  0.51234941  0.79206682  0.34532081    -0.33000
C1574       C  0.47110869  0.79347919  0.34914976     0.36000
H1575       H  0.46174490  0.86854393  0.36345917     0.16400
O1576       O  0.53813153  0.87147051  0.35779338    -0.60500
H1577       H  0.52606166  0.77027894  0.34155537     0.16400
O1578       O  0.44999975  0.76734681  0.34803649    -0.60600
H1579       H  0.45114826  0.75933531  0.37026652     0.43400
H1580       H  0.54204614  0.87880362  0.33559701     0.43400
C1581       C  0.26350466  0.95533822  0.79339919    -0.05700
C1582       C  0.22310702  0.94809870  0.78869686    -0.33100
C1583       C  0.20361768  0.95342999  0.75926669     0.36100
C1584       C  0.22460902  0.96560016  0.73344927    -0.06100
C1585       C  0.26462324  0.97383168  0.73852025    -0.33000
C1586       C  0.28389727  0.96903763  0.76815221     0.36000
H1587       H  0.20651266  0.93793323  0.80797134     0.16400
O1588       O  0.16496449  0.94474247  0.75539854    -0.60500
H1589       H  0.28146365  0.98336032  0.71900099     0.16400
O1590       O  0.32298145  0.97676784  0.77167368    -0.60600
H1591       H  0.33832917  0.95856988  0.76545473     0.43400
H1592       H  0.14882615  0.96236673  0.76213196     0.43400
C1593       C  0.95486844  0.93338169  0.65375060    -0.05700
C1594       C  0.97121824  0.96044806  0.66484241    -0.33100
C1595       C  0.01256097  0.96438253  0.66617717     0.36100
C1596       C  0.03851334  0.94085178  0.65666789    -0.06100
C1597       C  0.02196207  0.91274759  0.64947096    -0.33000
C1598       C  0.98079108  0.90885276  0.64814227     0.36000
H1599       H  0.95207888  0.97951449  0.66996047     0.16400
O1600       O  0.02701992  0.99186744  0.67507276    -0.60500
H1601       H  0.04089916  0.89398654  0.64280062     0.16400
O1602       O  0.96637861  0.88142093  0.63899695    -0.60600
H1603       H  0.96414005  0.86993474  0.65924025     0.43400
H1604       H  0.02407083  0.00460467  0.65573354     0.43400
C1605       C  0.22994388  0.91737711  0.52891914    -0.05700
C1606       C  0.20291243  0.90539871  0.50633374    -0.33100
C1607       C  0.21601365  0.88742184  0.48084639     0.36100
C1608       C  0.25665133  0.88108212  0.47769146    -0.06100
C1609       C  0.28364586  0.89338630  0.49995137    -0.33000
C1610       C  0.27075575  0.91152451  0.52516164     0.36000
H1611       H  0.17128771  0.90930919  0.50876238     0.16400
O1612       O  0.18895058  0.87660404  0.45903337    -0.60500
H1613       H  0.31526160  0.88927594  0.49766135     0.16400
O1614       O  0.29842645  0.92362196  0.54569763    -0.60600
H1615       H  0.30689590  0.90696333  0.55991633     0.43400
H1616       H  0.18650733  0.89234696  0.44239256     0.43400
C1617       C  0.28401298  0.54226813  0.23619166    -0.05700
C1618       C  0.27669902  0.57167474  0.24689232    -0.33100
C1619       C  0.25524187  0.57765273  0.27512108     0.36100
C1620       C  0.23978458  0.55400153  0.29367663    -0.06100
C1621       C  0.24701603  0.52436715  0.28290767    -0.33000
C1622       C  0.26878213  0.51845249  0.25447793     0.36000
H1623       H  0.28668853  0.59034556  0.23258094     0.16400
O1624       O  0.24927421  0.60697363  0.28410497    -0.60500
H1625       H  0.23618147  0.50568464  0.29673762     0.16400
O1626       O  0.27324653  0.48941398  0.24402443    -0.60600
H1627       H  0.30111068  0.48388382  0.24920605     0.43400
H1628       H  0.22288052  0.61249847  0.27523637     0.43400
C1629       C  0.12042530  0.00907744  0.54683914    -0.05700
C1630       C  0.12469768  0.99060394  0.51935104    -0.33100
C1631       C  0.12872567  0.00263057  0.48836374     0.36100
C1632       C  0.12400281  0.53210603  0.48584901    -0.06100
C1633       C  0.12364756  0.55083408  0.51347845    -0.33000
C1634       C  0.12275956  0.53916127  0.54477828     0.36000
H1635       H  0.12688505  0.96651851  0.52196296     0.16400
O1636       O  0.13603530  0.98351943  0.46306248    -0.60500
H1637       H  0.12568693  0.57488999  0.51102932     0.16400
O1638       O  0.12561458  0.55846898  0.57048078    -0.60600
H1639       H  0.09789486  0.56220075  0.57743559     0.43400
H1640       H  0.10956107  0.97671899  0.45577977     0.43400
C1641       C  0.27329779  0.99321221  0.38299121    -0.05700
C1642       C  0.25234299  0.97329460  0.36313067    -0.33100
C1643       C  0.26578284  0.94402330  0.35796194     0.36100
C1644       C  0.30063967  0.93362788  0.37326433    -0.06100
C1645       C  0.32361365  0.95433291  0.39102641    -0.33000
C1646       C  0.31018685  0.98412460  0.39578218     0.36000
H1647       H  0.22422917  0.98013190  0.35257180     0.16400
O1648       O  0.24286002  0.92504277  0.33979871    -0.60500
H1649       H  0.35030056  0.94684584  0.40331017     0.16400
O1650       O  0.32552446  0.50125657  0.42237335    -0.60600
H1651       H  0.34270679  0.51408045  0.40906367     0.43400
H1652       H  0.25475964  0.92526559  0.31801321     0.43400
C1653       C  0.22591662  0.74419902  0.39315015    -0.05700
C1654       C  0.22390865  0.72661699  0.42079053    -0.33100
C1655       C  0.21166376  0.69682038  0.41894192     0.36100
C1656       C  0.20149459  0.68383136  0.38902353    -0.06100
C1657       C  0.20138450  0.70176650  0.36145362    -0.33000
C1658       C  0.21369018  0.73182796  0.36334918     0.36000
H1659       H  0.23427759  0.73547157  0.44365047     0.16400
O1660       O  0.21258524  0.67989160  0.44630507    -0.60500
H1661       H  0.19409811  0.69202676  0.33824508     0.16400
O1662       O  0.21679833  0.74812289  0.33562232    -0.60600
H1663       H  0.24280490  0.74228437  0.32630728     0.43400
H1664       H  0.18699058  0.68409803  0.45717867     0.43400
C1665       C  0.28389830  0.71765320  0.73670710    -0.05700
C1666       C  0.30322488  0.69961470  0.75938272    -0.33100
C1667       C  0.28475127  0.69256558  0.78859041     0.36100
C1668       C  0.24594027  0.70346863  0.79564429    -0.06100
C1669       C  0.22792228  0.72320977  0.77376525    -0.33000
C1670       C  0.24633663  0.73004734  0.74449235     0.36000
H1671       H  0.33188658  0.68971801  0.75380876     0.16400
O1672       O  0.30499948  0.67470746  0.80992726    -0.60500
H1673       H  0.19897792  0.73280810  0.77892007     0.16400
O1674       O  0.22719847  0.74878993  0.72334779    -0.60600
H1675       H  0.20695250  0.73624611  0.71247413     0.43400
H1676       H  0.31891021  0.68876033  0.82454526     0.43400
C1677       C  0.29537637  0.60200777  0.63917301    -0.05700
C1678       C  0.30452257  0.58159488  0.61410756    -0.33100
C1679       C  0.28793717  0.55271463  0.61307851     0.36100
C1680       C  0.26188895  0.54370503  0.63747801    -0.06100
C1681       C  0.25524256  0.56337807  0.66365771    -0.33000
C1682       C  0.27116990  0.59223818  0.66445064     0.36000
H1683       H  0.32261256  0.58865598  0.59410987     0.16400
O1684       O  0.29472885  0.53460074  0.58685774    -0.60500
H1685       H  0.23618828  0.55680747  0.68327255     0.16400
O1686       O  0.26235576  0.61086142  0.68989647    -0.60600
H1687       H  0.23501981  0.61834294  0.68568545     0.43400
H1688       H  0.32202984  0.52665263  0.58981972     0.43400
C1689       C  0.20987885  0.85185907  0.63116001    -0.05700
C1690       C  0.22653020  0.84120464  0.65981876    -0.33100
C1691       C  0.24243114  0.81216843  0.66157348     0.36100
C1692       C  0.24212774  0.79302897  0.63427039    -0.06100
C1693       C  0.22321098  0.80297263  0.60611709    -0.33000
C1694       C  0.20714715  0.83215408  0.60440922     0.36000
H1695       H  0.22835253  0.85578154  0.68072837     0.16400
O1696       O  0.25872886  0.80275501  0.69013684    -0.60500
H1697       H  0.22306983  0.78884587  0.58481284     0.16400
O1698       O  0.19223151  0.84206529  0.57558198    -0.60600
H1699       H  0.16395279  0.83609623  0.57548612     0.43400
H1700       H  0.28472272  0.81290013  0.69180566     0.43400
C1701       C  0.37225922  0.78423438  0.48497431    -0.05700
C1702       C  0.39103002  0.75627251  0.48919772    -0.33100
C1703       C  0.39556490  0.74356338  0.52009230     0.36100
C1704       C  0.38045756  0.75843281  0.54785013    -0.06100
C1705       C  0.36206950  0.78652721  0.54348493    -0.33000
C1706       C  0.35811700  0.79940504  0.51282695     0.36000
H1707       H  0.40235214  0.74415722  0.46846416     0.16400
O1708       O  0.41513088  0.71661271  0.52274947    -0.60500
H1709       H  0.34942459  0.79839571  0.56388208     0.16400
O1710       O  0.33794326  0.82613985  0.51026912    -0.60600
H1711       H  0.35730722  0.84168958  0.51670644     0.43400
H1712       H  0.39526438  0.70123005  0.51692410     0.43400
C1713       C  0.24671930  0.62278896  0.48536197    -0.05700
C1714       C  0.28332230  0.63702827  0.48295663    -0.33100
C1715       C  0.29661302  0.65583579  0.50762036     0.36100
C1716       C  0.27323019  0.66035626  0.53545643    -0.06100
C1717       C  0.23699610  0.64527591  0.53800961    -0.33000
C1718       C  0.22386524  0.62651232  0.51334639     0.36000
H1719       H  0.30075283  0.63479292  0.46120561     0.16400
O1720       O  0.33251134  0.66960493  0.50415928    -0.60500
H1721       H  0.21910372  0.64739031  0.55951255     0.16400
O1722       O  0.18839168  0.61207790  0.51665440    -0.60600
H1723       H  0.19558795  0.59166384  0.52413430     0.43400
H1724       H  0.32663842  0.68815732  0.49196811     0.43400
C1725       C  0.78220338  0.53774891  0.27331627    -0.05700
C1726       C  0.74436473  0.52604442  0.26610396    -0.33100
C1727       C  0.72614605  0.53051495  0.23591792     0.36100
C1728       C  0.74512602  0.54774455  0.21239312    -0.06100
C1729       C  0.78375795  0.55828505  0.21919719    -0.33000
C1730       C  0.80237312  0.55310921  0.24906152     0.36000
H1731       H  0.72830218  0.51399847  0.28439063     0.16400
O1732       O  0.68930627  0.51877037  0.23015917    -0.60500
H1733       H  0.79960034  0.57098623  0.20131678     0.16400
O1734       O  0.83900919  0.56510651  0.25502240    -0.60600
H1735       H  0.85821194  0.54874581  0.25009781     0.43400
H1736       H  0.67025015  0.53398810  0.23845161     0.43400
C1737       C  0.75538279  0.71278195  0.37165630    -0.05700
C1738       C  0.74309456  0.69161802  0.34831387    -0.33100
C1739       C  0.75937128  0.66275081  0.34708996     0.36100
C1740       C  0.78865538  0.65420615  0.36950710    -0.06100
C1741       C  0.80344671  0.67606828  0.39103357    -0.33000
C1742       C  0.78716577  0.70515194  0.39214328     0.36000
H1743       H  0.71969979  0.69705860  0.33130017     0.16400
O1744       O  0.74507312  0.64273111  0.32477029    -0.60500
H1745       H  0.82621248  0.67019503  0.40842396     0.16400
O1746       O  0.80081551  0.72513306  0.41471545    -0.60600
H1747       H  0.82517890  0.73367257  0.40528413     0.43400
H1748       H  0.76021238  0.64665501  0.30484767     0.43400
C1749       C  0.71202376  0.90616273  0.37278716    -0.05700
C1750       C  0.69990577  0.92808831  0.39539300    -0.33100
C1751       C  0.71734000  0.95664317  0.39609922     0.36100
C1752       C  0.74722333  0.96364564  0.37387730    -0.06100
C1753       C  0.75680175  0.94237051  0.34979208    -0.33000
C1754       C  0.73959928  0.91404674  0.34913043     0.36000
H1755       H  0.67859896  0.92251827  0.41380338     0.16400
O1756       O  0.70817548  0.47326594  0.42261784    -0.60500
H1757       H  0.77871879  0.94735179  0.33164594     0.16400
O1758       O  0.75108897  0.89386286  0.32584509    -0.60600
H1759       H  0.73097656  0.89586230  0.30847754     0.43400
H1760       H  0.72343399  0.97248860  0.43812701     0.43400
C1761       C  0.88893623  0.50137918  0.46289100    -0.05700
C1762       C  0.87951198  0.47105356  0.46626609    -0.33100
C1763       C  0.87727952  0.95512317  0.49681404     0.36100
C1764       C  0.88125832  0.97225243  0.52561447    -0.06100
C1765       C  0.89027889  0.00281962  0.52247675    -0.33000
C1766       C  0.89863183  0.51783414  0.49125359     0.36000
H1767       H  0.87204769  0.45771658  0.44525528     0.16400
O1768       O  0.86818938  0.92526353  0.49777240    -0.60500
H1769       H  0.89357010  0.01668978  0.54379589     0.16400
O1770       O  0.90917664  0.54739042  0.48966900    -0.60600
H1771       H  0.93840176  0.54710426  0.48682718     0.43400
H1772       H  0.89011318  0.41634410  0.49526746     0.43400
C1773       C  0.96532176  0.56617528  0.35378889    -0.05700
C1774       C  0.98206949  0.59483497  0.35715702    -0.33100
C1775       C  0.02335007  0.59842373  0.36011222     0.36100
C1776       C  0.04888254  0.57316891  0.35918235    -0.06100
C1777       C  0.03242164  0.54500807  0.35247186    -0.33000
C1778       C  0.99127275  0.54127176  0.35023056     0.36000
H1779       H  0.96306219  0.61443597  0.35949025     0.16400
O1780       O  0.03834345  0.62662538  0.36469657    -0.60500
H1781       H  0.05124788  0.52520086  0.35172340     0.16400
O1782       O  0.97689861  0.51274471  0.34693794    -0.60600
H1783       H  0.97618367  0.50462102  0.36909477     0.43400
H1784       H  0.03272223  0.63177721  0.38747994     0.43400
C1785       C  0.74557002  0.70777901  0.71228512    -0.05700
C1786       C  0.78075860  0.69169172  0.71993434    -0.33100
C1787       C  0.80100894  0.69614965  0.74915712     0.36100
C1788       C  0.78629882  0.71679360  0.77180853    -0.06100
C1789       C  0.75244579  0.73403343  0.76373683    -0.33000
C1790       C  0.73272880  0.73020940  0.73401927     0.36000
H1791       H  0.79257745  0.67508322  0.70334809     0.16400
O1792       O  0.83402822  0.67909713  0.75598013    -0.60500
H1793       H  0.74054961  0.74998721  0.78103409     0.16400
O1794       O  0.70003354  0.74759376  0.72724534    -0.60600
H1795       H  0.71064438  0.76583536  0.71701422     0.43400
H1796       H  0.82389857  0.66102516  0.76685499     0.43400
C1797       C  0.61473435  0.75314341  0.46073667    -0.05700
C1798       C  0.61377228  0.72184772  0.46398383    -0.33100
C1799       C  0.61492492  0.70820404  0.49454137     0.36100
C1800       C  0.61902607  0.72567964  0.52312173    -0.06100
C1801       C  0.61801742  0.75698976  0.51986814    -0.33000
C1802       C  0.61539957  0.77064654  0.48942739     0.36000
H1803       H  0.61272703  0.70775354  0.44267570     0.16400
O1804       O  0.61348474  0.67756194  0.49586608    -0.60500
H1805       H  0.62077958  0.77118644  0.54098918     0.16400
O1806       O  0.61660490  0.80130845  0.48810883    -0.60600
H1807       H  0.58895041  0.80818355  0.49254936     0.43400
H1808       H  0.58493200  0.67280660  0.49795636     0.43400
C1809       C  0.76841187  0.76702465  0.61991867    -0.05700
C1810       C  0.74645072  0.78750049  0.63859849    -0.33100
C1811       C  0.76085854  0.81597176  0.64566020     0.36100
C1812       C  0.79758222  0.82513311  0.63317242    -0.06100
C1813       C  0.82138051  0.80373111  0.61691646    -0.33000
C1814       C  0.80717528  0.77456475  0.61069422     0.36000
H1815       H  0.71719958  0.78163471  0.64715299     0.16400
O1816       O  0.73737340  0.83546789  0.66293149    -0.60500
H1817       H  0.84968117  0.81021363  0.60700287     0.16400
O1818       O  0.82996001  0.75465699  0.59341697    -0.60600
H1819       H  0.84653726  0.74418223  0.60966077     0.43400
H1820       H  0.74651569  0.83350034  0.68553738     0.43400
C1821       C  0.70324396  0.57619648  0.62973250    -0.05700
C1822       C  0.73527213  0.56650455  0.64864568    -0.33100
C1823       C  0.75137656  0.53783049  0.64462658     0.36100
C1824       C  0.73584448  0.51815693  0.62113308    -0.06100
C1825       C  0.70159005  0.52665937  0.60408658    -0.33000
C1826       C  0.68539378  0.55568834  0.60809793     0.36000
H1827       H  0.74952895  0.58192409  0.66522030     0.16400
O1828       O  0.79396070  0.03175095  0.65297832    -0.60500
H1829       H  0.68911943  0.51169039  0.58616174     0.16400
O1830       O  0.65443995  0.56462770  0.58877059    -0.60600
H1831       H  0.66693008  0.57169858  0.56866034     0.43400
H1832       H  0.77306486  0.52258769  0.68327895     0.43400
C1833       C  0.55066495  0.68707287  0.65382823    -0.05700
C1834       C  0.53355621  0.71474218  0.66266463    -0.33100
C1835       C  0.49223192  0.71806171  0.66561025     0.36100
C1836       C  0.46705184  0.69346454  0.65935752    -0.06100
C1837       C  0.48468379  0.66502991  0.65488123    -0.33000
C1838       C  0.52597330  0.66169179  0.65233111     0.36000
H1839       H  0.55183885  0.73451783  0.66464308     0.16400
O1840       O  0.47684967  0.74609496  0.67157811    -0.60500
H1841       H  0.46635852  0.64548509  0.65112642     0.16400
O1842       O  0.54153918  0.63376430  0.64604603    -0.60600
H1843       H  0.55025065  0.62601562  0.66727260     0.43400
H1844       H  0.47834844  0.74866290  0.69527270     0.43400
C1845       C  0.76765304  0.59028233  0.47636650    -0.05700
C1846       C  0.73163063  0.60604442  0.47368246    -0.33100
C1847       C  0.71883457  0.62484892  0.49840263     0.36100
C1848       C  0.74224014  0.62830007  0.52622203    -0.06100
C1849       C  0.77739959  0.61168645  0.52968278    -0.33000
C1850       C  0.79001470  0.59244097  0.50509455     0.36000
H1851       H  0.71422847  0.60509602  0.45171034     0.16400
O1852       O  0.68409599  0.64073811  0.49472078    -0.60500
H1853       H  0.79447369  0.61301740  0.55180526     0.16400
O1854       O  0.82458828  0.57638856  0.50908823    -0.60600
H1855       H  0.81631120  0.55666663  0.51747087     0.43400
H1856       H  0.66267386  0.62608415  0.49839708     0.43400
loop_ 
_geom_bond_atom_site_label_1 
_geom_bond_atom_site_label_2 
_geom_bond_distance 
_geom_bond_site_symmetry_2 
_ccdc_geom_bond_type 
Fe1          O17   2.077       .  S
Fe1           O7   2.150       .  S
Fe1          O14   2.132       .  S
Fe1           O6   2.037       .  S
Fe1          O12   1.945       .  S
Fe2           O5   2.055       .  S
Fe2           O9   2.069       .  S
Fe2          O13   2.033       .  S
Fe2          O18   2.059       .  S
Fe2          O12   1.953       .  S
Fe3          O21   2.081       .  S
Fe3           O8   2.057       .  S
Fe3          O15   2.034       .  S
Fe3           O4   2.101       .  S
Fe3          O12   1.954       .  S
O4           C11   1.268       .  A
O5           C19   1.267       .  A
O6           C11   1.260       .  A
O7           C10   1.292       .  A
O8           C20   1.272       .  A
O9           C22   1.270       .  A
C10          O15   1.271       .  A
C10         C857   1.499       .  S
C11         C881   1.478       .  S
O13          C16   1.264       .  A
O14          C16   1.285       .  A
C16         C872   1.506       .  S
O17          C22   1.271       .  A
O18          C20   1.270       .  A
C19          O21   1.274       .  A
C19         C893   1.481       .  S
C20         C920   1.458       .  S
C22         C905   1.492       .  S
Fe23         O39   2.102   1_545  S
Fe23         O29   2.048   1_545  S
Fe23         O36   2.095       .  S
Fe23         O28   2.111       .  S
Fe23         O34   1.945       .  S
Fe24         O27   2.029       .  S
Fe24         O31   2.085       .  S
Fe24         O35   2.050       .  S
Fe24         O40   2.068       .  S
Fe24         O34   1.949       .  S
Fe25         O43   2.076       .  S
Fe25         O30   2.075       .  S
Fe25         O37   2.094       .  S
Fe25         O26   2.070       .  S
Fe25         O34   1.947       .  S
O26          C33   1.274       .  A
O27          C41   1.263       .  A
O28          C33   1.287       .  A
O29          C32   1.264       .  A
O30          C42   1.275       .  A
O31          C44   1.273       .  A
C32          O37   1.274   1_565  A
C32        C1752   1.490       .  S
C33         C797   1.488       .  S
O35          C38   1.264       .  A
O36          C38   1.271       .  A
C38         C845   1.493       .  S
O39          C44   1.280   1_565  A
O40          C42   1.271       .  A
C41          O43   1.273       .  A
C41         C917   1.474       .  S
C42         C812   1.483       .  S
C44         C833   1.510   1_545  S
Fe45         O61   2.090       .  S
Fe45         O51   2.046       .  S
Fe45         O58   2.089       .  S
Fe45         O50   2.102       .  S
Fe45         O56   1.942       .  S
Fe46         O49   2.030       .  S
Fe46         O53   2.087       .  S
Fe46         O57   2.058       .  S
Fe46         O62   2.083       .  S
Fe46         O56   1.951       .  S
Fe47         O65   2.058       .  S
Fe47         O52   2.070       .  S
Fe47         O59   2.092       .  S
Fe47         O48   2.062       .  S
Fe47         O56   1.944       .  S
O48          C55   1.272       .  A
O49          C63   1.261       .  A
O50          C55   1.286       .  A
O51          C54   1.262       .  A
O52          C64   1.276       .  A
O53          C66   1.275       .  A
C54          O59   1.272       .  A
C54         C764   1.483       .  S
C55         C737   1.483       .  S
O57          C60   1.265       .  A
O58          C60   1.270       .  A
C60         C908   1.496       .  S
O61          C66   1.279       .  A
O62          C64   1.275       .  A
C63          O65   1.268       .  A
C63         C788   1.462       .  S
C64         C749   1.492       .  S
C66         C776   1.507       .  S
Fe67         O83   2.071       .  S
Fe67         O73   2.142       .  S
Fe67         O80   2.122       .  S
Fe67         O72   2.038       .  S
Fe67         O78   1.939       .  S
Fe68         O71   2.053       .  S
Fe68         O75   2.068       .  S
Fe68         O79   2.043       .  S
Fe68         O84   2.049       .  S
Fe68         O78   1.948       .  S
Fe69         O87   2.087       .  S
Fe69         O74   2.053       .  S
Fe69         O81   2.038       .  S
Fe69         O70   2.113       .  S
Fe69         O78   1.957       .  S
O70          C77   1.270       .  A
O71          C85   1.267       .  A
O72          C77   1.259       .  A
O73          C76   1.289       .  A
O74          C86   1.273       .  A
O75          C88   1.271       .  A
C76          O81   1.272       .  A
C76         C692   1.493       .  S
C77        C1641   1.480   1_545  S
O79          C82   1.265       .  A
O80          C82   1.282       .  A
C82         C704   1.505       .  S
O83          C88   1.271       .  A
O84          C86   1.270       .  A
C85          O87   1.272       .  A
C85         C728   1.473       .  S
C86         C785   1.448       .  S
C88         C848   1.489       .  S
Fe89        O105   2.093       .  S
Fe89         O95   2.103       .  S
Fe89        O102   2.099       .  S
Fe89         O94   2.054       .  S
Fe89        O100   1.943       .  S
Fe90         O93   2.068       .  S
Fe90         O97   2.057       .  S
Fe90        O101   2.074       .  S
Fe90        O106   2.032       .  S
Fe90        O100   1.952       .  S
Fe91        O109   2.077       .  S
Fe91         O96   2.066       .  S
Fe91        O103   2.070       .  S
Fe91         O92   2.099       .  S
Fe91        O100   1.940       .  S
O92          C99   1.274       .  A
O93         C107   1.270       .  A
O94          C99   1.264       .  A
O95          C98   1.286       .  A
O96         C108   1.272       .  A
O97         C110   1.267       .  A
C98         O103   1.274       .  A
C98         C656   1.482       .  S
C99        C1680   1.493       .  S
O101        C104   1.271       .  A
O102        C104   1.279       .  A
C104        C701   1.501       .  S
O105        C110   1.271       .  A
O106        C108   1.265       .  A
C107        O109   1.275       .  A
C107        C761   1.480       .  S
C108        C677   1.472       .  S
C110        C668   1.494       .  S
Fe111       O127   2.132       .  S
Fe111       O117   2.038       .  S
Fe111       O124   2.069       .  S
Fe111       O116   2.143       .  S
Fe111       O122   1.947       .  S
Fe112       O115   2.041       .  S
Fe112       O119   2.046       .  S
Fe112       O123   2.067       .  S
Fe112       O128   2.063       .  S
Fe112       O122   1.958       .  S
Fe113       O131   2.068       .  S
Fe113       O118   2.079       .  S
Fe113       O125   2.091       .  S
Fe113       O114   2.045       .  S
Fe113       O122   1.955       .  S
O114        C121   1.274       .  A
O115        C129   1.266       .  A
O116        C121   1.291       .  A
O117        C120   1.259       .  A
O118        C130   1.274       .  A
O119        C132   1.267       .  A
C120        O125   1.267       .  A
C120        C725   1.472       .  S
C121        C632   1.502       .  S
O123        C126   1.268       .  A
O124        C126   1.268       .  A
C126        C641   1.490       .  S
O127        C132   1.285       .  A
O128        C130   1.271       .  A
C129        O131   1.273       .  A
C129        C680   1.472       .  S
C130        C716   1.481       .  S
C132        C773   1.504       .  S
Fe133       O149   2.128       .  S
Fe133       O139   2.038       .  S
Fe133       O146   2.073       .  S
Fe133       O138   2.139       .  S
Fe133       O144   1.952       .  S
Fe134       O137   2.047       .  S
Fe134       O141   2.047       .  S
Fe134       O145   2.065       .  S
Fe134       O150   2.070       .  S
Fe134       O144   1.956       .  S
Fe135       O153   2.067       .  S
Fe135       O140   2.063       .  S
Fe135       O147   2.097       .  S
Fe135       O136   2.030       .  S
Fe135       O144   1.957       .  S
O136        C143   1.270       .  A
O137        C151   1.267       .  A
O138        C143   1.290       .  A
O139        C142   1.259       .  A
O140        C152   1.270       .  A
O141        C154   1.268       .  A
C142        O147   1.268       .  A
C142       C1824   1.479       .  S
C143        C608   1.495       .  S
O145        C148   1.268       .  A
O146        C148   1.269       .  A
C148        C665   1.492       .  S
O149        C154   1.284       .  A
O150        C152   1.272       .  A
C151        O153   1.276       .  A
C151        C617   1.478       .  S
C152        C884   1.482       .  S
C154        C836   1.507       .  S
Fe155       O171   2.093       .  S
Fe155       O161   2.114       .  S
Fe155       O168   2.103       .  S
Fe155       O160   2.050       .  S
Fe155       O166   1.946       .  S
Fe156       O159   2.066       .  S
Fe156       O163   2.048       .  S
Fe156       O167   2.077       .  S
Fe156       O172   2.030       .  S
Fe156       O166   1.954       .  S
Fe157       O175   2.068       .  S
Fe157       O162   2.072       .  S
Fe157       O169   2.079       .  S
Fe157       O158   2.086       .  S
Fe157       O166   1.939       .  S
O158        C165   1.270       .  A
O159        C173   1.270       .  A
O160        C165   1.262       .  A
O161        C164   1.291       .  A
O162        C174   1.274       .  A
O163        C176   1.262       .  A
C164        O169   1.277       .  A
C164        C593   1.494       .  S
C165        C809   1.485       .  S
O167        C170   1.272       .  A
O168        C170   1.282       .  A
C170        C869   1.500       .  S
O171        C176   1.270       .  A
O172        C174   1.262       .  A
C173        O175   1.274       .  A
C173        C821   1.483       .  S
C174        C620   1.476       .  S
C176        C644   1.493       .  S
Fe177       O193   2.078       .  S
Fe177       O183   2.105       .  S
Fe177       O190   2.098       .  S
Fe177       O182   2.038       .  S
Fe177       O188   1.947       .  S
Fe178       O181   2.066       .  S
Fe178       O185   2.054       .  S
Fe178       O189   2.088       .  S
Fe178       O194   2.031       .  S
Fe178       O188   1.952       .  S
Fe179       O197   2.079       .  S
Fe179       O184   2.074       .  S
Fe179       O191   2.083       .  S
Fe179       O180   2.093       .  S
Fe179       O188   1.943       .  S
O180        C187   1.271       .  A
O181        C195   1.271       .  A
O182        C187   1.260       .  A
O183        C186   1.288       .  A
O184        C196   1.273       .  A
O185        C198   1.263       .  A
C186        O191   1.278       .  A
C186        C860   1.489       .  S
C187        C545   1.484       .  S
O189        C192   1.276       .  A
O190        C192   1.281       .  A
C192        C536   1.508       .  S
O193        C198   1.266       .  A
O194        C196   1.262       .  A
C195        O197   1.276       .  A
C195        C560   1.482       .  S
C196        C581   1.478       .  S
C198        C569   1.489       .  S
Fe199       O215   2.121       .  S
Fe199       O205   2.042       .  S
Fe199       O212   2.070       .  S
Fe199       O204   2.142       .  S
Fe199       O210   1.951       .  S
Fe200       O203   2.056       .  S
Fe200       O207   2.048       .  S
Fe200       O211   2.073       .  S
Fe200       O216   2.071       .  S
Fe200       O210   1.960       .  S
Fe201       O219   2.064       .  S
Fe201       O206   2.072       .  S
Fe201       O213   2.097       .  S
Fe201       O202   2.037       .  S
Fe201       O210   1.952       .  S
O202        C209   1.271       .  A
O203        C217   1.268       .  A
O204        C209   1.290       .  A
O205        C208   1.260       .  A
O206        C218   1.273       .  A
O207        C220   1.267       .  A
C208        O213   1.268       .  A
C208       C1425   1.481   1_545  S
C209        C800   1.498       .  S
O211        C214   1.272       .  A
O212        C214   1.270       .  A
C214        C521   1.491       .  S
O215        C220   1.282       .  A
O216        C218   1.273       .  A
C217        O219   1.275       .  A
C217        C584   1.478       .  S
C218        C485   1.487       .  S
C220        C512   1.504       .  S
Fe221       O237   2.127       .  S
Fe221       O227   2.045       .  S
Fe221       O234   2.076       .  S
Fe221       O226   2.128       .  S
Fe221       O232   1.948       .  S
Fe222       O225   2.043       .  S
Fe222       O229   2.043       .  S
Fe222       O233   2.046       .  S
Fe222       O238   2.065       .  S
Fe222       O232   1.948       .  S
Fe223       O241   2.065       .  S
Fe223       O228   2.085       .  S
Fe223       O235   2.098       .  S
Fe223       O224   2.041       .  S
Fe223       O232   1.960       .  S
O224        C231   1.273       .  A
O225        C239   1.269       .  A
O226        C231   1.288       .  A
O227        C230   1.262       .  A
O228        C240   1.272       .  A
O229        C242   1.267       .  A
C230        O235   1.268       .  A
C230        C449   1.478       .  S
C231        C740   1.489       .  S
O233        C236   1.265       .  A
O234        C236   1.271       .  A
C236        C572   1.486       .  S
O237        C242   1.282       .  A
O238        C240   1.266       .  A
C239        O241   1.275       .  A
C239        C476   1.465       .  S
C240        C440   1.478       .  S
C242        C461   1.503       .  S
Fe243       O259   2.094       .  S
Fe243       O249   2.106       .  S
Fe243       O256   2.093   1_545  S
Fe243       O248   2.049   1_545  S
Fe243       O254   1.956       .  S
Fe244       O247   2.079       .  S
Fe244       O251   2.049       .  S
Fe244       O255   2.088       .  S
Fe244       O260   2.033       .  S
Fe244       O254   1.956       .  S
Fe245       O263   2.075       .  S
Fe245       O250   2.063       .  S
Fe245       O257   2.066       .  S
Fe245       O246   2.096       .  S
Fe245       O254   1.948       .  S
O246        C253   1.272   1_545  A
O247        C261   1.272       .  A
O248        C253   1.262       .  A
O249        C252   1.287       .  A
O250        C262   1.271       .  A
O251        C264   1.262       .  A
C252        O257   1.273       .  A
C252        C689   1.482       .  S
C253       C1344   1.490       .  S
O255        C258   1.275       .  A
O256        C258   1.280   1_565  A
C258        C404   1.506   1_545  S
O259        C264   1.270       .  A
O260        C262   1.264       .  A
C261        O263   1.274       .  A
C261        C425   1.489       .  S
C262        C473   1.476       .  S
C264        C524   1.494       .  S
Fe265       O281   2.071       .  S
Fe265       O271   2.142       .  S
Fe265       O278   2.126       .  S
Fe265       O270   2.034       .  S
Fe265       O276   1.941       .  S
Fe266       O269   2.062       .  S
Fe266       O273   2.074       .  S
Fe266       O277   2.057       .  S
Fe266       O282   2.046       .  S
Fe266       O276   1.947       .  S
Fe267       O285   2.079       .  S
Fe267       O272   2.057       .  S
Fe267       O279   2.027       .  S
Fe267       O268   2.114       .  S
Fe267       O276   1.956       .  S
O268        C275   1.272       .  A
O269        C283   1.270       .  A
O270        C275   1.260       .  A
O271        C274   1.288       .  A
O272        C284   1.274       .  A
O273        C286   1.273       .  A
C274        O279   1.267       .  A
C274        C653   1.493       .  S
C275       C1365   1.486       .  S
O277        C280   1.267       .  A
O278        C280   1.282       .  A
C280        C401   1.511       .  S
O281        C286   1.271       .  A
O282        C284   1.270       .  A
C283        O285   1.273       .  A
C283        C452   1.481       .  S
C284        C389   1.469       .  S
C286        C380   1.491       .  S
Fe287       O303   2.096       .  S
Fe287       O293   2.058       .  S
Fe287       O300   2.084       .  S
Fe287       O292   2.112       .  S
Fe287       O298   1.937       .  S
Fe288       O291   2.034       .  S
Fe288       O295   2.077       .  S
Fe288       O299   2.053       .  S
Fe288       O304   2.073       .  S
Fe288       O298   1.961       .  S
Fe289       O307   2.059       .  S
Fe289       O294   2.069       .  S
Fe289       O301   2.093       .  S
Fe289       O290   2.075       .  S
Fe289       O298   1.938       .  S
O290        C297   1.274       .  A
O291        C305   1.264       .  A
O292        C297   1.287       .  A
O293        C296   1.265       .  A
O294        C306   1.274       .  A
O295        C308   1.270       .  A
C296        O301   1.272       .  A
C296        C428   1.493       .  S
C297        C629   1.494       .  S
O299        C302   1.266       .  A
O300        C302   1.270       .  A
C302        C368   1.491       .  S
O303        C308   1.280       .  A
O304        C306   1.271       .  A
C305        O307   1.271       .  A
C305        C392   1.471       .  S
C306        C413   1.482       .  S
C308        C464   1.504       .  S
Fe309       O325   2.101       .  S
Fe309       O315   2.044       .  S
Fe309       O322   2.093       .  S
Fe309       O314   2.105       .  S
Fe309       O320   1.943       .  S
Fe310       O313   2.030       .  S
Fe310       O317   2.081       .  S
Fe310       O321   2.055       .  S
Fe310       O326   2.076       .  S
Fe310       O320   1.949       .  S
Fe311       O329   2.069       .  S
Fe311       O316   2.073       .  S
Fe311       O323   2.097       .  S
Fe311       O312   2.059       .  S
Fe311       O320   1.949       .  S
O312        C319   1.271       .  A
O313        C327   1.263       .  A
O314        C319   1.286       .  A
O315        C318   1.263       .  A
O316        C328   1.275       .  A
O317        C330   1.272       .  A
C318        O323   1.276       .  A
C318       C1485   1.488       .  S
C319        C605   1.481       .  S
O321        C324   1.266       .  A
O322        C324   1.272       .  A
C324        C377   1.494       .  S
O325        C330   1.279       .  A
O326        C328   1.272       .  A
C327        O329   1.271       .  A
C327        C353   1.473       .  S
C328        C548   1.486       .  S
C330        C509   1.508       .  S
Fe331       O347   2.076       .  S
Fe331       O337   2.150       .  S
Fe331       O344   2.134       .  S
Fe331       O336   2.041       .  S
Fe331       O342   1.940       .  S
Fe332       O335   2.065       .  S
Fe332       O339   2.056       .  S
Fe332       O343   2.050       .  S
Fe332       O348   2.043       .  S
Fe332       O342   1.951       .  S
Fe333       O351   2.092       .  S
Fe333       O338   2.062       .  S
Fe333       O345   2.047       .  S
Fe333       O334   2.105       .  S
Fe333       O342   1.961       .  S
O334        C341   1.268       .  A
O335        C349   1.267       .  A
O336        C341   1.260       .  A
O337        C340   1.293       .  A
O338        C350   1.275       .  A
O339        C352   1.267       .  A
C340        O345   1.276       .  A
C340        C596   1.503       .  S
C341        C488   1.483       .  S
O343        C346   1.266       .  A
O344        C346   1.285       .  A
C346        C533   1.513       .  S
O347        C352   1.272       .  A
O348        C350   1.269       .  A
C349        O351   1.273       .  A
C349        C500   1.479       .  S
C350        C356   1.455       .  S
C352        C365   1.488       .  S
C353        C354   1.409   1_556  A
C353        C358   1.412       .  A
C354        C355   1.395       .  A
C354        H359   1.083       .  S
C355        C356   1.401       .  A
C355        O360   1.371       .  S
C356        C357   1.400   1_554  A
C357        C358   1.391       .  A
C357        H361   1.083       .  S
C358        O362   1.372       .  S
O360        H364   0.992       .  S
O362        H363   0.991       .  S
C365        C366   1.404       .  A
C365        C370   1.414       .  A
C366        C367   1.401   1_655  A
C366        H371   1.083       .  S
C367        C368   1.415       .  A
C367        O372   1.372       .  S
C368        C369   1.407       .  A
C369        C370   1.401   1_455  A
C369        H373   1.083       .  S
C370        O374   1.372       .  S
O372        H376   0.993       .  S
O374        H375   0.991       .  S
C377        C378   1.408       .  A
C377        C382   1.413       .  A
C378        C379   1.405       .  A
C378        H383   1.083       .  S
C379        C380   1.413       .  A
C379        O384   1.372       .  S
C380        C381   1.406       .  A
C381        C382   1.400       .  A
C381        H385   1.084       .  S
C382        O386   1.371       .  S
O384        H388   0.991       .  S
O386        H387   0.992       .  S
C389        C390   1.405       .  A
C389        C394   1.407       .  A
C390        C391   1.386   1_556  A
C390        H395   1.084       .  S
C391        C392   1.406       .  A
C391        O396   1.373       .  S
C392        C393   1.410       .  A
C393        C394   1.398   1_554  A
C393        H397   1.084       .  S
C394        O398   1.372       .  S
O396        H400   0.992       .  S
O398        H399   0.991       .  S
C401        C402   1.404       .  A
C401        C406   1.423   1_556  A
C402       C1331   1.410   1_556  A
C402        H407   1.083       .  S
C403        C404   1.420   1_545  A
C403       C1330   1.411   1_544  A
C403        O408   1.371       .  S
C404        C405   1.405       .  A
C405       C1334   1.405       .  A
C405        H409   1.083       .  S
C406       C1333   1.411       .  A
C406        O410   1.371       .  S
O408        H412   0.992       .  S
O410        H411   0.992       .  S
C413        C414   1.398       .  A
C413        C418   1.416       .  A
C414        C415   1.396       .  A
C414        H419   1.084       .  S
C415        C416   1.415       .  A
C415        O420   1.372       .  S
C416       C1181   1.485       .  S
C416        C417   1.403       .  A
C417        C418   1.407       .  A
C417       H1349   1.083       .  S
C418        O422   1.372       .  S
O420        H424   0.992       .  S
H421       C1345   1.083       .  S
O422        H423   0.991       .  S
C425        C426   1.411       .  A
C425        C430   1.406       .  A
C426        C427   1.410       .  A
C426        H431   1.083       .  S
C427        C428   1.410       .  A
C427        O432   1.371       .  S
C428        C429   1.410       .  A
C429        C430   1.398       .  A
C429        H433   1.084       .  S
C430        O434   1.372       .  S
O432        H436   0.991       .  S
O434        H435   0.992       .  S
C437       C1203   1.481   1_545  S
C437        C438   1.412       .  A
C437        C442   1.405       .  A
C438        C439   1.413       .  A
C438        H443   1.084       .  S
C439        C440   1.407       .  A
C439        O444   1.372       .  S
C440        C441   1.402       .  A
C441        C442   1.392       .  A
C441        H445   1.081       .  S
C442        O446   1.374       .  S
O444        H448   0.992       .  S
O446        H447   0.991       .  S
C449        C450   1.403       .  A
C449        C454   1.409       .  A
C450        C451   1.410       .  A
C450        H455   1.083       .  S
C451        C452   1.416       .  A
C451        O456   1.372       .  S
C452        C453   1.400       .  A
C453        C454   1.395       .  A
C453        H457   1.084       .  S
C454        O458   1.371       .  S
O456        H460   0.992       .  S
O458        H459   0.992       .  S
C461        C462   1.405       .  A
C461        C466   1.418   1_556  A
C462        C463   1.415   1_556  A
C462        H467   1.083       .  S
C463        C464   1.423       .  A
C463        O468   1.372       .  S
C464        C465   1.401       .  A
C465        C466   1.399       .  A
C465        H469   1.083       .  S
C466        O470   1.370       .  S
O468        H472   0.992       .  S
O470        H471   0.992       .  S
C473        C474   1.411       .  A
C473        C478   1.410       .  A
C474        C475   1.398   1_554  A
C474        H479   1.083       .  S
C475        C476   1.403       .  A
C475        O480   1.372       .  S
C476        C477   1.403   1_556  A
C477        C478   1.388       .  A
C477        H481   1.083       .  S
C478        O482   1.372       .  S
O480        H484   0.991       .  S
O482        H483   0.993       .  S
C485        C486   1.403       .  A
C485        C490   1.416       .  A
C486        C487   1.394       .  A
C486        H491   1.084       .  S
C487        C488   1.410       .  A
C487        O492   1.373       .  S
C488        C489   1.405       .  A
C489        C490   1.413       .  A
C489        H493   1.083       .  S
C490        O494   1.371       .  S
O492        H496   0.992       .  S
O494        H495   0.992       .  S
C497       C1136   1.481       .  S
C497        C498   1.411       .  A
C497        C502   1.407       .  A
C498        C499   1.411       .  A
C498       H1431   1.084       .  S
C499        C500   1.407       .  A
C499        O504   1.371       .  S
C500        C501   1.403       .  A
C501        C502   1.396       .  A
C501        H505   1.082       .  S
C502        O506   1.373       .  S
H503       C1426   1.084       .  S
O504        H508   0.992       .  S
O506        H507   0.992       .  S
C509        C510   1.406       .  A
C509        C514   1.420       .  A
C510       C1439   1.410       .  A
C510        H515   1.083       .  S
C511        C512   1.421   1_556  A
C511       C1438   1.404       .  A
C511        O516   1.372       .  S
C512        C513   1.405       .  A
C513       C1442   1.409   1_544  A
C513        H517   1.083   1_545  S
C514       C1441   1.408   1_556  A
C514        O518   1.371       .  S
O516        H520   0.993       .  S
O518        H519   0.992       .  S
C521        C522   1.404       .  A
C521        C526   1.414       .  A
C522        C523   1.401       .  A
C522        H527   1.084       .  S
C523        C524   1.414       .  A
C523        O528   1.372       .  S
C524        C525   1.408       .  A
C525        C526   1.406       .  A
C525        H529   1.083       .  S
C526        O530   1.372       .  S
O528        H532   0.992       .  S
O530        H531   0.992       .  S
C533        C534   1.405       .  A
C533        C538   1.424   1_554  A
C534        C535   1.412   1_554  A
C534        H539   1.083       .  S
C535        C536   1.420       .  A
C535        O540   1.370       .  S
C536        C537   1.403       .  A
C537        C538   1.408       .  A
C537        H541   1.083       .  S
C538        O542   1.371       .  S
O540        H544   0.991       .  S
O542        H543   0.992       .  S
C545        C546   1.410       .  A
C545        C550   1.405       .  A
C546        C547   1.396       .  A
C546        H551   1.084       .  S
C547        C548   1.406       .  A
C547        O552   1.372       .  S
C548        C549   1.412       .  A
C549        C550   1.406       .  A
C549        H553   1.083       .  S
C550        O554   1.371       .  S
O552        H556   0.992       .  S
O554        H555   0.991       .  S
C557       C1246   1.484       .  S
C557        C558   1.400       .  A
C557        C562   1.417       .  A
C558        C559   1.404       .  A
C558        H563   1.083       .  S
C559        C560   1.415       .  A
C559        O564   1.371       .  S
C560        C561   1.400       .  A
C561        C562   1.400       .  A
C561        H565   1.084       .  S
C562        O566   1.373       .  S
O564        H568   0.991       .  S
O566        H567   0.992       .  S
C569        C570   1.406       .  A
C569        C574   1.415       .  A
C570        C571   1.397   1_655  A
C570        H575   1.083       .  S
C571        C572   1.414       .  A
C571        O576   1.372       .  S
C572        C573   1.404       .  A
C573        C574   1.402   1_455  A
C573        H577   1.083       .  S
C574        O578   1.372       .  S
O576        H580   0.991       .  S
O578        H579   0.992       .  S
C581        C582   1.400       .  A
C581        C586   1.417   1_556  A
C582        C583   1.394   1_556  A
C582        H587   1.084       .  S
C583        C584   1.416       .  A
C583        O588   1.372       .  S
C584        C585   1.400       .  A
C585        C586   1.397       .  A
C585        H589   1.084       .  S
C586        O590   1.373   1_554  S
O588        H592   0.991   1_554  S
O590        H591   0.991   1_556  S
C593        C594   1.413       .  A
C593        C598   1.404       .  A
C594        C595   1.411       .  A
C594        H599   1.084       .  S
C595        C596   1.409       .  A
C595        O600   1.371       .  S
C596        C597   1.416       .  A
C597        C598   1.407       .  A
C597        H601   1.083       .  S
C598        O602   1.371       .  S
O600        H604   0.992       .  S
O602        H603   0.992       .  S
C605        C606   1.412       .  A
C605        C610   1.400       .  A
C606        C607   1.406       .  A
C606        H611   1.084       .  S
C607        C608   1.407       .  A
C607        O612   1.371       .  S
C608        C609   1.417       .  A
C609        C610   1.402       .  A
C609        H613   1.083       .  S
C610        O614   1.372       .  S
O612        H616   0.992       .  S
O614        H615   0.992       .  S
C617        C618   1.401       .  A
C617        C622   1.418       .  A
C618        C619   1.398       .  A
C618        H623   1.083       .  S
C619        C620   1.417       .  A
C619        O624   1.372       .  S
C620        C621   1.397       .  A
C621        C622   1.391       .  A
C621        H625   1.084       .  S
C622        O626   1.372       .  S
O624        H628   0.992       .  S
O626        H627   0.991       .  S
C629        C630   1.413       .  A
C629        C634   1.404       .  A
C630        C631   1.408       .  A
C630        H635   1.084       .  S
C631        C632   1.407       .  A
C631        O636   1.371       .  S
C632        C633   1.416       .  A
C633        C634   1.408       .  A
C633        H637   1.083       .  S
C634        O638   1.371       .  S
O636        H640   0.992       .  S
O638        H639   0.992       .  S
C641        C642   1.405       .  A
C641        C646   1.413       .  A
C642        C643   1.401       .  A
C642        H647   1.084       .  S
C643        C644   1.415       .  A
C643        O648   1.371       .  S
C644        C645   1.408       .  A
C645        C646   1.403       .  A
C645        H649   1.083       .  S
C646        O650   1.372       .  S
O648        H652   0.991       .  S
O650        H651   0.993       .  S
C653        C654   1.415       .  A
C653        C658   1.406       .  A
C654        C655   1.403       .  A
C654        H659   1.083       .  S
C655        C656   1.402       .  A
C655        O660   1.371       .  S
C656        C657   1.411       .  A
C657        C658   1.406       .  A
C657        H661   1.084       .  S
C658        O662   1.371       .  S
O660        H664   0.992       .  S
O662        H663   0.992       .  S
C665        C666   1.407       .  A
C665        C670   1.412       .  A
C666        C667   1.405   1_655  A
C666        H671   1.083       .  S
C667        C668   1.415       .  A
C667        O672   1.372       .  S
C668        C669   1.407       .  A
C669        C670   1.400   1_455  A
C669        H673   1.083       .  S
C670        O674   1.372       .  S
O672        H676   0.992       .  S
O674        H675   0.991       .  S
C677        C678   1.410       .  A
C677        C682   1.405       .  A
C678        C679   1.397       .  A
C678        H683   1.083       .  S
C679        C680   1.405       .  A
C679        O684   1.372       .  S
C680        C681   1.408       .  A
C681        C682   1.389       .  A
C681        H685   1.084       .  S
C682        O686   1.373       .  S
O684        H688   0.991       .  S
O686        H687   0.992       .  S
C689        C690   1.403       .  A
C689        C694   1.409       .  A
C690        C691   1.401       .  A
C690        H695   1.084       .  S
C691        C692   1.414       .  A
C691        O696   1.372       .  S
C692        C693   1.409       .  A
C693        C694   1.411       .  A
C693        H697   1.083       .  S
C694        O698   1.371   1_545  S
O696        H700   0.991       .  S
O698        H699   0.991       .  S
C701        C702   1.414       .  A
C701       C1634   1.407       .  A
C702        C703   1.411       .  A
C702        H707   1.083       .  S
C703       C1632   1.411       .  A
C703        O708   1.371       .  S
C704        C705   1.417       .  A
C704       C1631   1.410       .  A
C705        C706   1.409       .  A
C705        H709   1.083       .  S
C706       C1629   1.408       .  A
C706        O710   1.371       .  S
O708        H712   0.991       .  S
O710        H711   0.992       .  S
C713       C1005   1.474       .  S
C713        C714   1.402       .  A
C713        C718   1.405       .  A
C714        C715   1.394       .  A
C714        H719   1.084       .  S
C715        C716   1.407       .  A
C715        O720   1.372       .  S
C716        C717   1.411       .  A
C717        C718   1.409       .  A
C717        H721   1.083       .  S
C718       O1650   1.371       .  S
O720        H724   0.993       .  S
O722       C1646   1.371   1_545  S
O722        H723   0.991       .  S
C725        C726   1.400       .  A
C725        C730   1.411       .  A
C726        C727   1.405       .  A
C726        H731   1.083       .  S
C727        C728   1.414       .  A
C727        O732   1.371       .  S
C728        C729   1.397       .  A
C729        C730   1.397       .  A
C729        H733   1.084       .  S
C730        O734   1.372       .  S
O732        H736   0.991       .  S
O734        H735   0.991       .  S
C737        C738   1.397       .  A
C737        C742   1.418       .  A
C738        C739   1.403       .  A
C738        H743   1.084       .  S
C739        C740   1.420       .  A
C739        O744   1.371       .  S
C740        C741   1.400       .  A
C741        C742   1.404       .  A
C741        H745   1.083       .  S
C742        O746   1.373       .  S
O744        H748   0.992       .  S
O746        H747   0.992       .  S
C749        C750   1.413       .  A
C749        C754   1.408       .  A
C750        C751   1.409       .  A
C750        H755   1.083       .  S
C751        C752   1.409       .  A
C751        O756   1.371       .  S
C752       C1027   1.494       .  S
C752        C753   1.411       .  A
C753        C754   1.396       .  A
C753        H757   1.084       .  S
C754        O758   1.373       .  S
O756        H760   0.991       .  S
O758        H759   0.992       .  S
C761        C762   1.397       .  A
C761        C766   1.416       .  A
C762        C763   1.397       .  A
C762        H767   1.084       .  S
C763        C764   1.416       .  A
C763        O768   1.373       .  S
C764        C765   1.401       .  A
C765        C766   1.407       .  A
C765        H769   1.084       .  S
C766        O770   1.372       .  S
O768        H772   0.992       .  S
O770        H771   0.992       .  S
C773        C774   1.405       .  A
C773        C778   1.420       .  A
C774        C775   1.413       .  A
C774        H779   1.083       .  S
C775        C776   1.420       .  A
C775        O780   1.371       .  S
C776        C777   1.405       .  A
C777        C778   1.405       .  A
C777        H781   1.083       .  S
C778        O782   1.373       .  S
O780        H784   0.990       .  S
O782        H783   0.992       .  S
C785        C786   1.397       .  A
C785        C790   1.404       .  A
C786        C787   1.393       .  A
C786        H791   1.084       .  S
C787        C788   1.410       .  A
C787        O792   1.371       .  S
C788        C789   1.403       .  A
C789        C790   1.390       .  A
C789        H793   1.084       .  S
C790        O794   1.373       .  S
O792        H796   0.991       .  S
O794        H795   0.992       .  S
C797        C798   1.412       .  A
C797        C802   1.403       .  A
C798        C799   1.407       .  A
C798        H803   1.084       .  S
C799        C800   1.407       .  A
C799        O804   1.371       .  S
C800        C801   1.416       .  A
C801        C802   1.405       .  A
C801        H805   1.083       .  S
C802        O806   1.371       .  S
O804        H808   0.992       .  S
O806        H807   0.992       .  S
C809        C810   1.411       .  A
C809        C814   1.406       .  A
C810        C811   1.398       .  A
C810        H815   1.084       .  S
C811        C812   1.406       .  A
C811        O816   1.372       .  S
C812        C813   1.411       .  A
C813        C814   1.404       .  A
C813        H817   1.084       .  S
C814        O818   1.371       .  S
O816        H820   0.992       .  S
O818        H819   0.992       .  S
C821        C822   1.411       .  A
C821        C826   1.405       .  A
C822        C823   1.407       .  A
C822        H827   1.084       .  S
C823        C824   1.409       .  A
C823       O1756   1.371       .  S
C824        C960   1.487       .  S
C824        C825   1.409       .  A
C825        C826   1.394       .  A
C825        H829   1.084       .  S
C826        O830   1.372       .  S
O828       C1751   1.371       .  S
O828       H1760   0.991       .  S
O830        H831   0.991       .  S
H832       O1756   0.992       .  S
C833        C834   1.403       .  A
C833        C838   1.421   1_565  A
C834       C1763   1.407       .  A
C834        H839   1.083       .  S
C835        C836   1.422       .  A
C835       C1762   1.403       .  A
C835        O840   1.371       .  S
C836        C837   1.406       .  A
C837       C1766   1.412       .  A
C837        H841   1.083       .  S
C838       C1765   1.414       .  A
C838        O842   1.371       .  S
O840       H1772   0.992       .  S
O842        H843   0.991       .  S
H844       O1768   0.992       .  S
C845        C846   1.407       .  A
C845        C850   1.413       .  A
C846        C847   1.399   1_655  A
C846        H851   1.083       .  S
C847        C848   1.411       .  A
C847        O852   1.373       .  S
C848        C849   1.407       .  A
C849        C850   1.406   1_455  A
C849        H853   1.083       .  S
C850        O854   1.372       .  S
O852        H856   0.992       .  S
O854        H855   0.992       .  S
C857        C858   1.416       .  A
C857        C862   1.407       .  A
C858        C859   1.405       .  A
C858        H863   1.083       .  S
C859        C860   1.403       .  A
C859        O864   1.372       .  S
C860        C861   1.412       .  A
C861        C862   1.409       .  A
C861        H865   1.084       .  S
C862        O866   1.371       .  S
O864        H868   0.992       .  S
O866        H867   0.992       .  S
C869        C870   1.400       .  A
C869        C874   1.420       .  A
C870        C871   1.405       .  A
C870        H875   1.084       .  S
C871        C872   1.424       .  A
C871        O876   1.370       .  S
C872        C873   1.403       .  A
C873        C874   1.408       .  A
C873        H877   1.083       .  S
C874        O878   1.370       .  S
O876        H880   0.992       .  S
O878        H879   0.994       .  S
C881        C882   1.402       .  A
C881        C886   1.407       .  A
C882        C883   1.392       .  A
C882        H887   1.084       .  S
C883        C884   1.410       .  A
C883        O888   1.373       .  S
C884        C885   1.410       .  A
C885        C886   1.411       .  A
C885        H889   1.083       .  S
C886        O890   1.370       .  S
O888        H892   0.991       .  S
O890        H891   0.991       .  S
C893        C894   1.399       .  A
C893        C898   1.416       .  A
C894        C895   1.391       .  A
C894        H899   1.084       .  S
C895        C896   1.411       .  A
C895       O1828   1.372       .  S
C896       C1070   1.480   1_545  S
C896        C897   1.403       .  A
C897        C898   1.411       .  A
C897        H901   1.083       .  S
C898        O902   1.372       .  S
O900       C1823   1.372       .  S
O900       H1832   0.991       .  S
O902        H903   0.992       .  S
H904       O1828   0.992       .  S
C905        C906   1.406       .  A
C905        C910   1.413       .  A
C906        C907   1.405       .  A
C906        H911   1.083       .  S
C907        C908   1.415       .  A
C907        O912   1.371       .  S
C908        C909   1.408       .  A
C909        C910   1.402       .  A
C909        H913   1.083       .  S
C910        O914   1.372       .  S
O912        H916   0.992       .  S
O914        H915   0.992       .  S
C917        C918   1.404       .  A
C917        C922   1.414       .  A
C918        C919   1.394       .  A
C918        H923   1.084       .  S
C919        C920   1.404       .  A
C919        O924   1.371       .  S
C920        C921   1.397       .  A
C921        C922   1.396       .  A
C921        H925   1.084       .  S
C922        O926   1.371       .  S
O924        H928   0.991       .  S
O926        H927   0.992       .  S
Fe929       O945   2.081       .  S
Fe929       O935   2.149       .  S
Fe929       O942   2.127       .  S
Fe929       O934   2.038       .  S
Fe929       O940   1.946       .  S
Fe930       O933   2.064       .  S
Fe930       O937   2.068       .  S
Fe930       O941   2.059       .  S
Fe930       O946   2.044       .  S
Fe930       O940   1.956       .  S
Fe931       O949   2.075       .  S
Fe931       O936   2.060       .  S
Fe931       O943   2.037       .  S
Fe931       O932   2.106       .  S
Fe931       O940   1.963       .  S
O932        C939   1.268       .  A
O933        C947   1.270       .  A
O934        C939   1.259       .  A
O935        C938   1.291       .  A
O936        C948   1.275       .  A
O937        C950   1.270       .  A
C938        O943   1.272       .  A
C938       C1785   1.502       .  S
C939       C1809   1.481       .  S
O941        C944   1.268       .  A
O942        C944   1.283       .  A
C944       C1800   1.515       .  S
O945        C950   1.273       .  A
O946        C948   1.268       .  A
C947        O949   1.271       .  A
C947       C1821   1.478       .  S
C948       C1848   1.455       .  S
C950       C1833   1.492       .  S
Fe951       O967   2.102       .  S
Fe951       O957   2.047       .  S
Fe951       O964   2.080       .  S
Fe951       O956   2.114       .  S
Fe951       O962   1.943       .  S
Fe952       O955   2.032       .  S
Fe952       O959   2.076       .  S
Fe952       O963   2.057       .  S
Fe952       O968   2.062       .  S
Fe952       O962   1.963       .  S
Fe953       O971   2.060       .  S
Fe953       O958   2.075       .  S
Fe953       O965   2.087       .  S
Fe953       O954   2.074       .  S
Fe953       O962   1.956       .  S
O954        C961   1.275       .  A
O955        C969   1.263       .  A
O956        C961   1.288       .  A
O957        C960   1.263       .  A
O958        C970   1.275       .  A
O959        C972   1.271       .  A
C960        O965   1.269       .  A
C961       C1725   1.493       .  S
O963        C966   1.264       .  A
O964        C966   1.269       .  A
C966       C1773   1.494       .  S
O967        C972   1.282       .  A
O968        C970   1.270       .  A
C969        O971   1.270       .  A
C969       C1845   1.466       .  S
C970       C1740   1.486       .  S
C972       C1761   1.505       .  S
Fe973       O989   2.095       .  S
Fe973       O979   2.055       .  S
Fe973       O986   2.091       .  S
Fe973       O978   2.104       .  S
Fe973       O984   1.945       .  S
Fe974       O977   2.031       .  S
Fe974       O981   2.090       .  S
Fe974       O985   2.061       .  S
Fe974       O990   2.084       .  S
Fe974       O984   1.951       .  S
Fe975       O993   2.070       .  S
Fe975       O980   2.076       .  S
Fe975       O987   2.096       .  S
Fe975       O976   2.072       .  S
Fe975       O984   1.943       .  S
O976        C983   1.274       .  A
O977        C991   1.262       .  A
O978        C983   1.286       .  A
O979        C982   1.264       .  A
O980        C992   1.276       .  A
O981        C994   1.275       .  A
C982        O987   1.273       .  A
C982       C1692   1.487       .  S
C983       C1665   1.485       .  S
O985        C988   1.266       .  A
O986        C988   1.271       .  A
C988       C1836   1.497       .  S
O989        C994   1.280       .  A
O990        C992   1.275       .  A
C991        O993   1.272       .  A
C991       C1716   1.475       .  S
C992       C1677   1.492       .  S
C994       C1704   1.511       .  S
Fe995      O1011   2.075       .  S
Fe995      O1001   2.150       .  S
Fe995      O1008   2.125       .  S
Fe995      O1000   2.035       .  S
Fe995      O1006   1.946       .  S
Fe996       O999   2.065       .  S
Fe996      O1003   2.073       .  S
Fe996      O1007   2.044       .  S
Fe996      O1012   2.056       .  S
Fe996      O1006   1.953       .  S
Fe997      O1015   2.093       .  S
Fe997      O1002   2.059       .  S
Fe997      O1009   2.051       .  S
Fe997       O998   2.101       .  S
Fe997      O1006   1.961       .  S
O998       C1005   1.267       .  A
O999       C1013   1.268       .  A
O1000      C1005   1.258       .  A
O1001      C1004   1.292       .  A
O1002      C1014   1.274       .  A
O1003      C1016   1.271       .  A
C1004      O1009   1.276       .  A
C1004      C1620   1.506       .  S
O1007      C1010   1.266       .  A
O1008      C1010   1.281       .  A
C1010      C1632   1.508       .  S
O1011      C1016   1.273       .  A
O1012      C1014   1.271       .  A
C1013      O1015   1.272       .  A
C1013      C1656   1.479       .  S
C1014      C1713   1.460       .  S
C1016      C1776   1.490       .  S
Fe1017     O1033   2.097       .  S
Fe1017     O1023   2.115       .  S
Fe1017     O1030   2.105   1_565  S
Fe1017     O1022   2.045   1_565  S
Fe1017     O1028   1.946       .  S
Fe1018     O1021   2.074       .  S
Fe1018     O1025   2.056       .  S
Fe1018     O1029   2.073       .  S
Fe1018     O1034   2.031       .  S
Fe1018     O1028   1.956       .  S
Fe1019     O1037   2.080       .  S
Fe1019     O1024   2.062       .  S
Fe1019     O1031   2.062       .  S
Fe1019     O1020   2.098       .  S
Fe1019     O1028   1.948       .  S
O1020      C1027   1.274   1_565  A
O1021      C1035   1.271       .  A
O1022      C1027   1.263       .  A
O1023      C1026   1.289       .  A
O1024      C1036   1.270       .  A
O1025      C1038   1.267       .  A
C1026      O1031   1.273       .  A
C1026      C1584   1.492       .  S
O1029      C1032   1.271       .  A
O1030      C1032   1.278   1_545  A
C1032      C1629   1.499   1_565  S
O1033      C1038   1.272       .  A
O1034      C1036   1.263       .  A
C1035      O1037   1.276       .  A
C1035      C1689   1.485       .  S
C1036      C1605   1.472       .  S
C1038      C1596   1.497       .  S
Fe1039     O1055   2.127       .  S
Fe1039     O1045   2.039       .  S
Fe1039     O1052   2.069       .  S
Fe1039     O1044   2.138       .  S
Fe1039     O1050   1.949       .  S
Fe1040     O1043   2.031       .  S
Fe1040     O1047   2.056       .  S
Fe1040     O1051   2.061       .  S
Fe1040     O1056   2.070       .  S
Fe1040     O1050   1.957       .  S
Fe1041     O1059   2.067       .  S
Fe1041     O1046   2.081       .  S
Fe1041     O1053   2.100       .  S
Fe1041     O1042   2.039       .  S
Fe1041     O1050   1.955       .  S
O1042      C1049   1.272       .  A
O1043      C1057   1.265       .  A
O1044      C1049   1.289       .  A
O1045      C1048   1.259       .  A
O1046      C1058   1.273       .  A
O1047      C1060   1.268       .  A
C1048      O1053   1.269       .  A
C1048      C1653   1.475       .  S
C1049      C1560   1.491       .  S
O1051      C1054   1.268       .  A
O1052      C1054   1.269       .  A
C1054      C1569   1.485       .  S
O1055      C1060   1.282       .  A
O1056      C1058   1.272       .  A
C1057      O1059   1.275       .  A
C1057      C1608   1.466       .  S
C1058      C1644   1.489       .  S
C1060      C1701   1.507       .  S
Fe1061     O1077   2.127       .  S
Fe1061     O1067   2.033       .  S
Fe1061     O1074   2.078       .  S
Fe1061     O1066   2.143       .  S
Fe1061     O1072   1.945       .  S
Fe1062     O1065   2.033       .  S
Fe1062     O1069   2.058       .  S
Fe1062     O1073   2.061       .  S
Fe1062     O1078   2.071       .  S
Fe1062     O1072   1.952       .  S
Fe1063     O1081   2.067       .  S
Fe1063     O1068   2.078       .  S
Fe1063     O1075   2.105       .  S
Fe1063     O1064   2.038       .  S
Fe1063     O1072   1.961       .  S
O1064      C1071   1.272       .  A
O1065      C1079   1.263       .  A
O1066      C1071   1.290       .  A
O1067      C1070   1.257       .  A
O1068      C1080   1.274       .  A
O1069      C1082   1.269       .  A
C1070      O1075   1.268       .  A
C1071      C1536   1.495       .  S
O1073      C1076   1.268       .  A
O1074      C1076   1.272       .  A
C1076      C1593   1.492       .  S
O1077      C1082   1.283       .  A
O1078      C1080   1.273       .  A
C1079      O1081   1.276       .  A
C1079      C1545   1.471       .  S
C1080      C1812   1.487       .  S
C1082      C1764   1.514       .  S
Fe1083     O1099   2.076       .  S
Fe1083     O1089   2.120       .  S
Fe1083     O1096   2.115       .  S
Fe1083     O1088   2.032       .  S
Fe1083     O1094   1.946       .  S
Fe1084     O1087   2.069       .  S
Fe1084     O1091   2.052       .  S
Fe1084     O1095   2.087       .  S
Fe1084     O1100   2.018       .  S
Fe1084     O1094   1.957       .  S
Fe1085     O1103   2.074       .  S
Fe1085     O1090   2.060       .  S
Fe1085     O1097   2.062       .  S
Fe1085     O1086   2.093       .  S
Fe1085     O1094   1.950       .  S
O1086      C1093   1.270       .  A
O1087      C1101   1.271       .  A
O1088      C1093   1.258       .  A
O1089      C1092   1.292       .  A
O1090      C1102   1.271       .  A
O1091      C1104   1.260       .  A
C1092      O1097   1.274       .  A
C1092      C1521   1.491       .  S
C1093      C1737   1.489       .  S
O1095      C1098   1.276       .  A
O1096      C1098   1.285       .  A
C1098      C1797   1.511       .  S
O1099      C1104   1.266       .  A
O1100      C1102   1.260       .  A
C1101      O1103   1.274       .  A
C1101      C1749   1.484       .  S
C1102      C1548   1.470       .  S
C1104      C1572   1.489       .  S
Fe1105     O1121   2.094       .  S
Fe1105     O1111   2.104       .  S
Fe1105     O1118   2.102       .  S
Fe1105     O1110   2.052       .  S
Fe1105     O1116   1.946       .  S
Fe1106     O1109   2.065       .  S
Fe1106     O1113   2.059       .  S
Fe1106     O1117   2.077       .  S
Fe1106     O1122   2.030       .  S
Fe1106     O1116   1.953       .  S
Fe1107     O1125   2.084       .  S
Fe1107     O1112   2.076       .  S
Fe1107     O1119   2.081       .  S
Fe1107     O1108   2.094       .  S
Fe1107     O1116   1.951       .  S
O1108      C1115   1.272       .  A
O1109      C1123   1.270       .  A
O1110      C1115   1.263       .  A
O1111      C1114   1.286       .  A
O1112      C1124   1.273       .  A
O1113      C1126   1.267       .  A
C1114      O1119   1.276       .  A
C1114      C1788   1.486       .  S
C1115      C1473   1.485       .  S
O1117      C1120   1.270       .  A
O1118      C1120   1.280       .  A
C1120      C1464   1.508       .  S
O1121      C1126   1.272       .  A
O1122      C1124   1.264       .  A
C1123      O1125   1.277       .  A
C1123      C1488   1.489       .  S
C1124      C1509   1.469       .  S
C1126      C1497   1.497       .  S
Fe1127     O1143   2.118       .  S
Fe1127     O1133   2.037       .  S
Fe1127     O1140   2.070       .  S
Fe1127     O1132   2.142       .  S
Fe1127     O1138   1.944       .  S
Fe1128     O1131   2.051       .  S
Fe1128     O1135   2.058       .  S
Fe1128     O1139   2.078       .  S
Fe1128     O1144   2.064       .  S
Fe1128     O1138   1.957       .  S
Fe1129     O1147   2.071       .  S
Fe1129     O1134   2.085       .  S
Fe1129     O1141   2.105       .  S
Fe1129     O1130   2.046       .  S
Fe1129     O1138   1.956       .  S
O1130      C1137   1.274       .  A
O1131      C1145   1.267       .  A
O1132      C1137   1.290       .  A
O1133      C1136   1.258       .  A
O1134      C1146   1.274       .  A
O1135      C1148   1.268       .  A
C1136      O1141   1.269       .  A
C1137      C1728   1.500       .  S
O1139      C1142   1.272       .  A
O1140      C1142   1.270       .  A
C1142      C1449   1.492       .  S
O1143      C1148   1.282       .  A
O1144      C1146   1.272       .  A
C1145      O1147   1.277       .  A
C1145      C1512   1.479       .  S
C1146      C1413   1.481       .  S
C1148      C1440   1.508       .  S
Fe1149     O1165   2.122       .  S
Fe1149     O1155   2.045       .  S
Fe1149     O1162   2.084       .  S
Fe1149     O1154   2.135       .  S
Fe1149     O1160   1.948       .  S
Fe1150     O1153   2.050       .  S
Fe1150     O1157   2.046       .  S
Fe1150     O1161   2.058       .  S
Fe1150     O1166   2.072       .  S
Fe1150     O1160   1.952       .  S
Fe1151     O1169   2.065       .  S
Fe1151     O1156   2.081       .  S
Fe1151     O1163   2.093       .  S
Fe1151     O1152   2.046       .  S
Fe1151     O1160   1.962       .  S
O1152      C1159   1.276       .  A
O1153      C1167   1.270       .  A
O1154      C1159   1.291       .  A
O1155      C1158   1.260       .  A
O1156      C1168   1.271       .  A
O1157      C1170   1.267       .  A
C1158      O1163   1.266       .  A
C1158      C1377   1.478       .  S
C1159      C1668   1.498       .  S
O1161      C1164   1.268       .  A
O1162      C1164   1.273       .  A
C1164      C1500   1.496       .  S
O1165      C1170   1.282       .  A
O1166      C1168   1.268       .  A
C1167      O1169   1.276       .  A
C1167      C1404   1.468       .  S
C1168      C1368   1.482       .  S
C1170      C1389   1.505       .  S
Fe1171     O1187   2.097       .  S
Fe1171     O1177   2.121       .  S
Fe1171     O1184   2.110       .  S
Fe1171     O1176   2.046       .  S
Fe1171     O1182   1.954       .  S
Fe1172     O1175   2.059       .  S
Fe1172     O1179   2.053       .  S
Fe1172     O1183   2.079       .  S
Fe1172     O1188   2.035       .  S
Fe1172     O1182   1.957       .  S
Fe1173     O1191   2.076       .  S
Fe1173     O1178   2.063       .  S
Fe1173     O1185   2.071       .  S
Fe1173     O1174   2.092       .  S
Fe1173     O1182   1.954       .  S
O1174      C1181   1.271       .  A
O1175      C1189   1.269       .  A
O1176      C1181   1.262       .  A
O1177      C1180   1.289       .  A
O1178      C1190   1.270       .  A
O1179      C1192   1.263       .  A
C1180      O1185   1.273       .  A
C1180      C1617   1.491       .  S
O1183      C1186   1.272       .  A
O1184      C1186   1.281       .  A
C1186      C1332   1.508       .  S
O1187      C1192   1.272       .  A
O1188      C1190   1.265       .  A
C1189      O1191   1.275       .  A
C1189      C1353   1.481       .  S
C1190      C1401   1.478       .  S
C1192      C1452   1.496       .  S
Fe1193     O1209   2.075       .  S
Fe1193     O1199   2.145       .  S
Fe1193     O1206   2.129       .  S
Fe1193     O1198   2.040       .  S
Fe1193     O1204   1.944       .  S
Fe1194     O1197   2.056       .  S
Fe1194     O1201   2.066       .  S
Fe1194     O1205   2.042       .  S
Fe1194     O1210   2.049       .  S
Fe1194     O1204   1.954       .  S
Fe1195     O1213   2.078       .  S
Fe1195     O1200   2.060       .  S
Fe1195     O1207   2.034       .  S
Fe1195     O1196   2.098       .  S
Fe1195     O1204   1.955       .  S
O1196      C1203   1.268       .  A
O1197      C1211   1.269       .  A
O1198      C1203   1.261       .  A
O1199      C1202   1.291       .  A
O1200      C1212   1.273       .  A
O1201      C1214   1.270       .  A
C1202      O1207   1.271       .  A
C1202      C1581   1.492       .  S
O1205      C1208   1.265       .  A
O1206      C1208   1.283       .  A
C1208      C1329   1.503       .  S
O1209      C1214   1.271       .  A
O1210      C1212   1.269       .  A
C1211      O1213   1.273       .  A
C1211      C1380   1.479       .  S
C1212      C1317   1.474       .  S
C1214      C1308   1.492       .  S
Fe1215     O1231   2.094       .  S
Fe1215     O1221   2.036       .  S
Fe1215     O1228   2.074       .  S
Fe1215     O1220   2.103       .  S
Fe1215     O1226   1.950       .  S
Fe1216     O1219   2.035       .  S
Fe1216     O1223   2.082       .  S
Fe1216     O1227   2.056       .  S
Fe1216     O1232   2.063       .  S
Fe1216     O1226   1.960       .  S
Fe1217     O1235   2.057       .  S
Fe1217     O1222   2.080       .  S
Fe1217     O1229   2.094       .  S
Fe1217     O1218   2.070       .  S
Fe1217     O1226   1.952       .  S
O1218      C1225   1.276       .  A
O1219      C1233   1.266       .  A
O1220      C1225   1.288       .  A
O1221      C1224   1.259       .  A
O1222      C1234   1.275       .  A
O1223      C1236   1.273       .  A
C1224      O1229   1.270       .  A
C1224      C1356   1.485       .  S
C1225      C1557   1.487       .  S
O1227      C1230   1.264       .  A
O1228      C1230   1.265       .  A
C1230      C1296   1.489       .  S
O1231      C1236   1.281       .  A
O1232      C1234   1.269       .  A
C1233      O1235   1.271       .  A
C1233      C1320   1.469       .  S
C1234      C1341   1.482       .  S
C1236      C1392   1.503       .  S
Fe1237     O1253   2.098   1_565  S
Fe1237     O1243   2.052   1_565  S
Fe1237     O1250   2.093       .  S
Fe1237     O1242   2.106       .  S
Fe1237     O1248   1.947       .  S
Fe1238     O1241   2.040       .  S
Fe1238     O1245   2.076       .  S
Fe1238     O1249   2.054       .  S
Fe1238     O1254   2.074       .  S
Fe1238     O1248   1.954       .  S
Fe1239     O1257   2.071       .  S
Fe1239     O1244   2.076       .  S
Fe1239     O1251   2.088       .  S
Fe1239     O1240   2.063       .  S
Fe1239     O1248   1.946       .  S
O1240      C1247   1.272       .  A
O1241      C1255   1.266       .  A
O1242      C1247   1.286       .  A
O1243      C1246   1.264       .  A
O1244      C1256   1.275       .  A
O1245      C1258   1.269       .  A
C1246      O1251   1.274   1_545  A
C1247      C1533   1.487       .  S
O1249      C1252   1.267       .  A
O1250      C1252   1.273       .  A
C1252      C1305   1.494       .  S
O1253      C1258   1.279   1_545  A
O1254      C1256   1.271       .  A
C1255      O1257   1.272       .  A
C1255      C1281   1.478       .  S
C1256      C1476   1.487       .  S
C1258      C1437   1.503   1_565  S
Fe1259     O1275   2.075       .  S
Fe1259     O1265   2.138       .  S
Fe1259     O1272   2.132       .  S
Fe1259     O1264   2.039       .  S
Fe1259     O1270   1.952       .  S
Fe1260     O1263   2.070       .  S
Fe1260     O1267   2.053       .  S
Fe1260     O1271   2.046       .  S
Fe1260     O1276   2.048       .  S
Fe1260     O1270   1.957       .  S
Fe1261     O1279   2.079       .  S
Fe1261     O1266   2.072       .  S
Fe1261     O1273   2.046       .  S
Fe1261     O1262   2.101       .  S
Fe1261     O1270   1.961       .  S
O1262      C1269   1.268       .  A
O1263      C1277   1.268       .  A
O1264      C1269   1.258       .  A
O1265      C1268   1.292       .  A
O1266      C1278   1.279       .  A
O1267      C1280   1.266       .  A
C1268      O1273   1.276       .  A
C1268      C1524   1.494       .  S
C1269      C1416   1.481       .  S
O1271      C1274   1.267       .  A
O1272      C1274   1.284       .  A
C1274      C1461   1.509       .  S
O1275      C1280   1.269       .  A
O1276      C1278   1.270       .  A
C1277      O1279   1.270       .  A
C1277      C1428   1.480       .  S
C1278      C1284   1.473       .  S
C1280      C1293   1.488       .  S
C1281      C1282   1.409   1_556  A
C1281      C1286   1.409       .  A
C1282      C1283   1.397       .  A
C1282      H1287   1.083   1_554  S
C1283      C1284   1.405       .  A
C1283      O1288   1.371       .  S
C1284      C1285   1.408       .  A
C1285      C1286   1.393   1_554  A
C1285      H1289   1.084       .  S
C1286      O1290   1.372       .  S
O1288      H1292   0.991       .  S
O1290      H1291   0.991       .  S
C1293      C1294   1.406       .  A
C1293      C1298   1.412       .  A
C1294      C1295   1.404   1_655  A
C1294      H1299   1.083       .  S
C1295      C1296   1.415       .  A
C1295      O1300   1.373       .  S
C1296      C1297   1.404       .  A
C1297      C1298   1.396   1_455  A
C1297      H1301   1.083       .  S
C1298      O1302   1.371       .  S
O1300      H1304   0.993       .  S
O1302      H1303   0.990       .  S
C1305      C1306   1.409       .  A
C1305      C1310   1.413       .  A
C1306      C1307   1.405       .  A
C1306      H1311   1.083       .  S
C1307      C1308   1.413       .  A
C1307      O1312   1.372       .  S
C1308      C1309   1.406       .  A
C1309      C1310   1.399       .  A
C1309      H1313   1.084       .  S
C1310      O1314   1.371       .  S
O1312      H1316   0.992       .  S
O1314      H1315   0.991       .  S
C1317      C1318   1.410       .  A
C1317      C1322   1.406       .  A
C1318      C1319   1.391   1_556  A
C1318      H1323   1.083       .  S
C1319      C1320   1.404       .  A
C1319      O1324   1.373       .  S
C1320      C1321   1.408       .  A
C1321      C1322   1.395   1_554  A
C1321      H1325   1.084       .  S
C1322      O1326   1.372       .  S
O1324      H1328   0.992       .  S
O1326      H1327   0.991       .  S
C1329      C1330   1.403       .  A
C1329      C1334   1.420   1_556  A
C1330      H1335   1.083   1_565  S
C1331      C1332   1.421       .  A
C1331      O1336   1.372       .  S
C1332      C1333   1.404       .  A
C1333      H1337   1.083       .  S
C1334      O1338   1.372       .  S
O1336      H1340   0.991       .  S
O1338      H1339   0.992       .  S
C1341      C1342   1.397       .  A
C1341      C1346   1.416       .  A
C1342      C1343   1.399       .  A
C1342      H1347   1.084       .  S
C1343      C1344   1.418       .  A
C1343      O1348   1.372       .  S
C1344      C1345   1.404       .  A
C1345      C1346   1.408       .  A
C1346      O1350   1.372       .  S
O1348      H1352   0.992       .  S
O1350      H1351   0.991       .  S
C1353      C1354   1.412       .  A
C1353      C1358   1.403       .  A
C1354      C1355   1.406       .  A
C1354      H1359   1.084       .  S
C1355      C1356   1.406       .  A
C1355      O1360   1.371       .  S
C1356      C1357   1.411       .  A
C1357      C1358   1.397       .  A
C1357      H1361   1.084       .  S
C1358      O1362   1.372       .  S
O1360      H1364   0.992       .  S
O1362      H1363   0.992       .  S
C1365      C1366   1.412       .  A
C1365      C1370   1.409       .  A
C1366      C1367   1.414       .  A
C1366      H1371   1.083       .  S
C1367      C1368   1.408       .  A
C1367      O1372   1.371       .  S
C1368      C1369   1.403       .  A
C1369      C1370   1.394       .  A
C1369      H1373   1.083       .  S
C1370      O1374   1.374       .  S
O1372      H1376   0.991       .  S
O1374      H1375   0.993       .  S
C1377      C1378   1.403       .  A
C1377      C1382   1.409       .  A
C1378      C1379   1.410       .  A
C1378      H1383   1.083       .  S
C1379      C1380   1.416       .  A
C1379      O1384   1.372       .  S
C1380      C1381   1.399       .  A
C1381      C1382   1.394       .  A
C1381      H1385   1.084       .  S
C1382      O1386   1.371       .  S
O1384      H1388   0.992       .  S
O1386      H1387   0.992       .  S
C1389      C1390   1.405       .  A
C1389      C1394   1.421   1_556  A
C1390      C1391   1.412   1_556  A
C1390      H1395   1.083       .  S
C1391      C1392   1.422       .  A
C1391      O1396   1.372       .  S
C1392      C1393   1.401       .  A
C1393      C1394   1.402       .  A
C1393      H1397   1.083       .  S
C1394      O1398   1.371       .  S
O1396      H1400   0.992       .  S
O1398      H1399   0.992       .  S
C1401      C1402   1.410       .  A
C1401      C1406   1.410       .  A
C1402      C1403   1.396   1_554  A
C1402      H1407   1.082       .  S
C1403      C1404   1.403       .  A
C1403      O1408   1.372       .  S
C1404      C1405   1.405   1_556  A
C1405      C1406   1.392       .  A
C1405      H1409   1.083       .  S
C1406      O1410   1.372       .  S
O1408      H1412   0.991       .  S
O1410      H1411   0.993       .  S
C1413      C1414   1.400       .  A
C1413      C1418   1.415       .  A
C1414      C1415   1.399       .  A
C1414      H1419   1.084       .  S
C1415      C1416   1.412       .  A
C1415      O1420   1.373       .  S
C1416      C1417   1.402       .  A
C1417      C1418   1.409       .  A
C1417      H1421   1.083       .  S
C1418      O1422   1.371       .  S
O1420      H1424   0.991       .  S
O1422      H1423   0.991       .  S
C1425      C1426   1.412       .  A
C1425      C1430   1.406       .  A
C1426      C1427   1.411       .  A
C1427      C1428   1.406       .  A
C1427      O1432   1.371       .  S
C1428      C1429   1.404       .  A
C1429      C1430   1.395       .  A
C1429      H1433   1.081       .  S
C1430      O1434   1.373       .  S
O1432      H1436   0.992       .  S
O1434      H1435   0.992       .  S
C1437      C1438   1.402       .  A
C1437      C1442   1.421   1_545  A
C1438      H1443   1.083       .  S
C1439      C1440   1.422   1_556  A
C1439      O1444   1.372       .  S
C1440      C1441   1.404       .  A
C1441      H1445   1.083       .  S
C1442      O1446   1.371       .  S
O1444      H1448   0.992       .  S
O1446      H1447   0.992       .  S
C1449      C1450   1.405       .  A
C1449      C1454   1.413       .  A
C1450      C1451   1.404       .  A
C1450      H1455   1.084       .  S
C1451      C1452   1.415       .  A
C1451      O1456   1.372       .  S
C1452      C1453   1.408       .  A
C1453      C1454   1.405       .  A
C1453      H1457   1.083       .  S
C1454      O1458   1.372       .  S
O1456      H1460   0.992       .  S
O1458      H1459   0.992       .  S
C1461      C1462   1.405       .  A
C1461      C1466   1.422   1_554  A
C1462      C1463   1.415   1_554  A
C1462      H1467   1.083       .  S
C1463      C1464   1.423       .  A
C1463      O1468   1.371       .  S
C1464      C1465   1.401       .  A
C1465      C1466   1.404       .  A
C1465      H1469   1.083       .  S
C1466      O1470   1.372   1_556  S
O1468      H1472   0.991       .  S
O1470      H1471   0.992   1_554  S
C1473      C1474   1.409       .  A
C1473      C1478   1.406       .  A
C1474      C1475   1.400       .  A
C1474      H1479   1.084       .  S
C1475      C1476   1.406       .  A
C1475      O1480   1.372       .  S
C1476      C1477   1.412       .  A
C1477      C1478   1.407       .  A
C1477      H1481   1.084       .  S
C1478      O1482   1.371       .  S
O1480      H1484   0.991       .  S
O1482      H1483   0.991       .  S
C1485      C1486   1.400       .  A
C1485      C1490   1.419       .  A
C1486      C1487   1.406       .  A
C1486      H1491   1.083       .  S
C1487      C1488   1.419       .  A
C1487      O1492   1.371       .  S
C1488      C1489   1.399       .  A
C1489      C1490   1.400       .  A
C1489      H1493   1.084       .  S
C1490      O1494   1.373       .  S
O1492      H1496   0.991       .  S
O1494      H1495   0.992       .  S
C1497      C1498   1.406       .  A
C1497      C1502   1.415       .  A
C1498      C1499   1.401   1_655  A
C1498      H1503   1.083       .  S
C1499      C1500   1.415       .  A
C1499      O1504   1.372       .  S
C1500      C1501   1.407       .  A
C1501      C1502   1.407   1_455  A
C1501      H1505   1.083       .  S
C1502      O1506   1.372       .  S
O1504      H1508   0.992       .  S
O1506      H1507   0.991       .  S
C1509      C1510   1.397       .  A
C1509      C1514   1.413       .  A
C1510      C1511   1.396   1_556  A
C1510      H1515   1.084       .  S
C1511      C1512   1.420       .  A
C1511      O1516   1.372       .  S
C1512      C1513   1.399       .  A
C1513      C1514   1.393   1_554  A
C1513      H1517   1.083       .  S
C1514      O1518   1.372       .  S
O1516      H1520   0.992       .  S
O1518      H1519   0.989       .  S
C1521      C1522   1.414       .  A
C1521      C1526   1.403       .  A
C1522      C1523   1.406       .  A
C1522      H1527   1.084       .  S
C1523      C1524   1.405       .  A
C1523      O1528   1.372       .  S
C1524      C1525   1.415       .  A
C1525      C1526   1.407       .  A
C1525      H1529   1.083       .  S
C1526      O1530   1.371       .  S
O1528      H1532   0.991       .  S
O1530      H1531   0.992       .  S
C1533      C1534   1.413       .  A
C1533      C1538   1.402       .  A
C1534      C1535   1.406       .  A
C1534      H1539   1.084       .  S
C1535      C1536   1.405       .  A
C1535      O1540   1.371       .  S
C1536      C1537   1.415       .  A
C1537      C1538   1.406       .  A
C1537      H1541   1.083       .  S
C1538      O1542   1.371       .  S
O1540      H1544   0.991       .  S
O1542      H1543   0.992       .  S
C1545      C1546   1.397       .  A
C1545      C1550   1.418       .  A
C1546      C1547   1.392       .  A
C1546      H1551   1.084       .  S
C1547      C1548   1.418       .  A
C1547      O1552   1.372       .  S
C1548      C1549   1.397       .  A
C1549      C1550   1.389       .  A
C1549      H1553   1.084       .  S
C1550      O1554   1.372       .  S
O1552      H1556   0.992       .  S
O1554      H1555   0.991       .  S
C1557      C1558   1.413       .  A
C1557      C1562   1.403       .  A
C1558      C1559   1.406       .  A
C1558      H1563   1.084       .  S
C1559      C1560   1.405       .  A
C1559      O1564   1.371       .  S
C1560      C1561   1.413       .  A
C1561      C1562   1.404       .  A
C1561      H1565   1.084       .  S
C1562      O1566   1.371       .  S
O1564      H1568   0.991       .  S
O1566      H1567   0.992       .  S
C1569      C1570   1.406       .  A
C1569      C1574   1.411       .  A
C1570      C1571   1.400       .  A
C1570      H1575   1.084       .  S
C1571      C1572   1.413       .  A
C1571      O1576   1.371       .  S
C1572      C1573   1.408       .  A
C1573      C1574   1.400       .  A
C1573      H1577   1.083       .  S
C1574      O1578   1.372       .  S
O1576      H1580   0.991       .  S
O1578      H1579   0.993       .  S
C1581      C1582   1.414       .  A
C1581      C1586   1.404       .  A
C1582      C1583   1.406       .  A
C1582      H1587   1.084       .  S
C1583      C1584   1.403       .  A
C1583      O1588   1.371       .  S
C1584      C1585   1.415       .  A
C1585      C1586   1.406       .  A
C1585      H1589   1.084       .  S
C1586      O1590   1.371       .  S
O1588      H1592   0.991       .  S
O1590      H1591   0.992       .  S
C1593      C1594   1.406       .  A
C1593      C1598   1.413       .  A
C1594      C1595   1.406   1_655  A
C1594      H1599   1.083       .  S
C1595      C1596   1.416       .  A
C1595      O1600   1.372       .  S
C1596      C1597   1.407       .  A
C1597      C1598   1.400   1_455  A
C1597      H1601   1.083       .  S
C1598      O1602   1.372       .  S
O1600      H1604   0.992   1_565  S
O1602      H1603   0.992       .  S
C1605      C1606   1.411       .  A
C1605      C1610   1.407       .  A
C1606      C1607   1.395       .  A
C1606      H1611   1.083       .  S
C1607      C1608   1.402       .  A
C1607      O1612   1.371       .  S
C1608      C1609   1.407       .  A
C1609      C1610   1.388       .  A
C1609      H1613   1.084       .  S
C1610      O1614   1.373       .  S
O1612      H1616   0.992       .  S
O1614      H1615   0.992       .  S
C1617      C1618   1.403       .  A
C1617      C1622   1.413       .  A
C1618      C1619   1.404       .  A
C1618      H1623   1.084       .  S
C1619      C1620   1.416       .  A
C1619      O1624   1.372       .  S
C1620      C1621   1.413       .  A
C1621      C1622   1.416       .  A
C1621      H1625   1.083       .  S
C1622      O1626   1.371       .  S
O1624      H1628   0.991       .  S
O1626      H1627   0.992       .  S
C1629      C1630   1.411   1_545  A
C1630      C1631   1.406   1_565  A
C1630      H1635   1.083       .  S
C1631      O1636   1.371   1_545  S
C1632      C1633   1.416       .  A
C1633      C1634   1.405       .  A
C1633      H1637   1.082       .  S
C1634      O1638   1.371       .  S
O1636      H1640   0.990       .  S
O1638      H1639   0.991       .  S
C1641      C1642   1.402       .  A
C1641      C1646   1.407       .  A
C1642      C1643   1.394       .  A
C1642      H1647   1.084       .  S
C1643      C1644   1.409       .  A
C1643      O1648   1.372       .  S
C1644      C1645   1.413       .  A
C1645      C1646   1.413       .  A
C1645      H1649   1.083       .  S
O1648      H1652   0.992       .  S
O1650      H1651   0.991       .  S
C1653      C1654   1.398       .  A
C1653      C1658   1.414       .  A
C1654      C1655   1.397       .  A
C1654      H1659   1.084       .  S
C1655      C1656   1.410       .  A
C1655      O1660   1.370       .  S
C1656      C1657   1.402       .  A
C1657      C1658   1.409       .  A
C1657      H1661   1.083       .  S
C1658      O1662   1.372       .  S
O1660      H1664   0.991       .  S
O1662      H1663   0.992       .  S
C1665      C1666   1.398       .  A
C1665      C1670   1.415       .  A
C1666      C1667   1.406       .  A
C1666      H1671   1.084       .  S
C1667      C1668   1.422       .  A
C1667      O1672   1.372       .  S
C1668      C1669   1.403       .  A
C1669      C1670   1.405       .  A
C1669      H1673   1.083       .  S
C1670      O1674   1.372       .  S
O1672      H1676   0.990       .  S
O1674      H1675   0.992       .  S
C1677      C1678   1.412       .  A
C1677      C1682   1.407       .  A
C1678      C1679   1.410       .  A
C1678      H1683   1.083       .  S
C1679      C1680   1.407       .  A
C1679      O1684   1.371       .  S
C1680      C1681   1.411       .  A
C1681      C1682   1.400       .  A
C1681      H1685   1.084       .  S
C1682      O1686   1.372       .  S
O1684      H1688   0.990       .  S
O1686      H1687   0.992       .  S
C1689      C1690   1.399       .  A
C1689      C1694   1.416       .  A
C1690      C1691   1.400       .  A
C1690      H1695   1.084       .  S
C1691      C1692   1.416       .  A
C1691      O1696   1.373       .  S
C1692      C1693   1.403       .  A
C1693      C1694   1.408       .  A
C1693      H1697   1.083       .  S
C1694      O1698   1.372       .  S
O1696      H1700   0.992       .  S
O1698      H1699   0.992       .  S
C1701      C1702   1.405       .  A
C1701      C1706   1.419       .  A
C1702      C1703   1.414       .  A
C1702      H1707   1.083       .  S
C1703      C1704   1.421       .  A
C1703      O1708   1.371       .  S
C1704      C1705   1.406       .  A
C1705      C1706   1.407       .  A
C1705      H1709   1.083       .  S
C1706      O1710   1.372       .  S
O1708      H1712   0.991       .  S
O1710      H1711   0.991       .  S
C1713      C1714   1.397       .  A
C1713      C1718   1.406       .  A
C1714      C1715   1.395       .  A
C1714      H1719   1.084       .  S
C1715      C1716   1.415       .  A
C1715      O1720   1.370       .  S
C1716      C1717   1.404       .  A
C1717      C1718   1.392       .  A
C1717      H1721   1.084       .  S
C1718      O1722   1.371       .  S
O1720      H1724   0.992       .  S
O1722      H1723   0.992       .  S
C1725      C1726   1.412       .  A
C1725      C1730   1.405       .  A
C1726      C1727   1.409       .  A
C1726      H1731   1.084       .  S
C1727      C1728   1.408       .  A
C1727      O1732   1.371       .  S
C1728      C1729   1.415       .  A
C1729      C1730   1.408       .  A
C1729      H1733   1.083       .  S
C1730      O1734   1.371       .  S
O1732      H1736   0.991       .  S
O1734      H1735   0.992       .  S
C1737      C1738   1.413       .  A
C1737      C1742   1.406       .  A
C1738      C1739   1.396       .  A
C1738      H1743   1.084       .  S
C1739      C1740   1.406       .  A
C1739      O1744   1.372       .  S
C1740      C1741   1.412       .  A
C1741      C1742   1.405       .  A
C1741      H1745   1.083       .  S
C1742      O1746   1.371       .  S
O1744      H1748   0.992       .  S
O1746      H1747   0.992       .  S
C1749      C1750   1.411       .  A
C1749      C1754   1.405       .  A
C1750      C1751   1.408       .  A
C1750      H1755   1.083       .  S
C1751      C1752   1.408       .  A
C1752      C1753   1.411       .  A
C1753      C1754   1.395       .  A
C1753      H1757   1.084       .  S
C1754      O1758   1.372       .  S
O1758      H1759   0.992       .  S
C1761      C1762   1.401       .  A
C1761      C1766   1.423       .  A
C1762      H1767   1.083       .  S
C1763      C1764   1.422       .  A
C1763      O1768   1.371       .  S
C1764      C1765   1.407   1_565  A
C1765      H1769   1.083       .  S
C1766      O1770   1.371       .  S
O1770      H1771   0.992       .  S
C1773      C1774   1.409       .  A
C1773      C1778   1.415       .  A
C1774      C1775   1.406   1_655  A
C1774      H1779   1.083       .  S
C1775      C1776   1.412       .  A
C1775      O1780   1.372       .  S
C1776      C1777   1.404       .  A
C1777      C1778   1.401   1_455  A
C1777      H1781   1.084       .  S
C1778      O1782   1.372       .  S
O1780      H1784   0.992       .  S
O1782      H1783   0.993       .  S
C1785      C1786   1.416       .  A
C1785      C1790   1.410       .  A
C1786      C1787   1.404       .  A
C1786      H1791   1.083       .  S
C1787      C1788   1.402       .  A
C1787      O1792   1.372       .  S
C1788      C1789   1.410       .  A
C1789      C1790   1.410       .  A
C1789      H1793   1.084       .  S
C1790      O1794   1.371       .  S
O1792      H1796   0.991       .  S
O1794      H1795   0.991       .  S
C1797      C1798   1.405       .  A
C1797      C1802   1.421       .  A
C1798      C1799   1.412       .  A
C1798      H1803   1.083       .  S
C1799      C1800   1.423       .  A
C1799      O1804   1.370       .  S
C1800      C1801   1.405       .  A
C1801      C1802   1.410       .  A
C1801      H1805   1.083       .  S
C1802      O1806   1.371       .  S
O1804      H1808   0.991       .  S
O1806      H1807   0.996       .  S
C1809      C1810   1.403       .  A
C1809      C1814   1.407       .  A
C1810      C1811   1.393       .  A
C1810      H1815   1.084       .  S
C1811      C1812   1.409       .  A
C1811      O1816   1.372       .  S
C1812      C1813   1.412       .  A
C1813      C1814   1.413       .  A
C1813      H1817   1.083       .  S
C1814      O1818   1.370       .  S
O1816      H1820   0.992       .  S
O1818      H1819   0.991       .  S
C1821      C1822   1.399       .  A
C1821      C1826   1.415       .  A
C1822      C1823   1.395       .  A
C1822      H1827   1.084       .  S
C1823      C1824   1.411       .  A
C1824      C1825   1.402       .  A
C1825      C1826   1.410       .  A
C1825      H1829   1.083       .  S
C1826      O1830   1.372       .  S
O1830      H1831   0.992       .  S
C1833      C1834   1.405       .  A
C1833      C1838   1.412       .  A
C1834      C1835   1.405       .  A
C1834      H1839   1.083       .  S
C1835      C1836   1.415       .  A
C1835      O1840   1.371       .  S
C1836      C1837   1.408       .  A
C1837      C1838   1.402       .  A
C1837      H1841   1.083       .  S
C1838      O1842   1.372       .  S
O1840      H1844   0.992       .  S
O1842      H1843   0.992       .  S
C1845      C1846   1.402       .  A
C1845      C1850   1.412       .  A
C1846      C1847   1.390       .  A
C1846      H1851   1.084       .  S
C1847      C1848   1.405       .  A
C1847      O1852   1.371       .  S
C1848      C1849   1.399       .  A
C1849      C1850   1.396       .  A
C1849      H1853   1.084       .  S
C1850      O1854   1.372       .  S
O1852      H1856   0.992       .  S
O1854      H1855   0.992       .  S
