geometry optimzed in LAMMPS
_audit_creation_date              2020-12-01 
_audit_creation_method            'lammps2cif' 
_symmetry_space_group_name_H-M    'P1' 
_symmetry_Int_Tables_number       1 
_symmetry_cell_setting            triclinic 
loop_ 
_symmetry_equiv_pos_as_xyz 
  x,y,z 
_cell_length_a                    43.85809034 
_cell_length_b                    32.36450638076257 
_cell_length_c                    43.463118857404005 
_cell_angle_alpha                 89.66891100119543 
_cell_angle_beta                  109.18580546789869 
_cell_angle_gamma                 89.7547003543543 
loop_ 
_atom_site_label 
_atom_site_type_symbol 
_atom_site_fract_x 
_atom_site_fract_y 
_atom_site_fract_z 
_atom_site_charge 
O1          O  0.29080536  0.87601235  0.08936769    -0.84200
O2          O  0.28038155  0.79908799  0.10311455    -0.81300
C3          C  0.28165151  0.76277111  0.11295977     0.99200
O4          O  0.30882618  0.74482030  0.12247582    -0.81300
O5          O  0.33781496  0.76081885  0.07266824    -0.84000
C6          C  0.35363833  0.78008624  0.05743062     1.03800
O7          O  0.37011361  0.81116800  0.06955099    -0.76700
O8          O  0.32407454  0.86618204  0.06199062    -0.76900
C9          C  0.29629914  0.87511223  0.06224397     1.03700
O10         O  0.33644453  0.88379906  0.15723774    -0.84200
O11         O  0.32444358  0.80299939  0.17143924    -0.81300
C12         C  0.34929151  0.77982786  0.18455933     0.99200
O13         O  0.36738841  0.76964360  0.16849658    -0.81300
O14         O  0.39821472  0.77413180  0.12249535    -0.83900
C15         C  0.41680847  0.80508568  0.12977250     1.03700
O16         O  0.40551503  0.84052161  0.13186111    -0.76800
O17         O  0.36000328  0.90377432  0.12252274    -0.76900
C18         C  0.35204434  0.91030042  0.14737869     1.03700
Cr19       Cr  0.31059126  0.83922267  0.12969733     1.93700
Cr20       Cr  0.35207132  0.76646602  0.12091195     1.93200
Cr21       Cr  0.36329432  0.85332338  0.09848568     1.39100
O22         O  0.34237568  0.82016604  0.11714622    -1.22000
O23         O  0.19989998  0.84951351  0.41072439    -0.84200
O24         O  0.19216197  0.78614109  0.36548506    -0.81300
C25         C  0.19629542  0.75263104  0.38120479     0.99200
O26         O  0.17796960  0.74331600  0.39735489    -0.81300
O27         O  0.12899523  0.75361615  0.42504771    -0.84000
C28         C  0.13662815  0.77621878  0.44982343     1.03800
O29         O  0.14567440  0.81268016  0.44878358    -0.76700
O30         O  0.16482705  0.88271688  0.42722730    -0.76900
C31         C  0.19352910  0.87070534  0.43240254     1.03700
O32         O  0.14856748  0.89481717  0.36230904    -0.84200
O33         O  0.13753340  0.82321507  0.32159298    -0.81300
C34         C  0.12935788  0.78583289  0.31400582     0.99200
O35         O  0.13100454  0.75893873  0.33557388    -0.81300
O36         O  0.08426883  0.77306547  0.36367828    -0.83900
C37         C  0.06908915  0.79173650  0.37971310     1.03700
O38         O  0.08344638  0.81801845  0.40080639    -0.76800
O39         O  0.10436636  0.88509186  0.37394525    -0.76900
C40         C  0.12157406  0.90803064  0.36304680     1.03700
Cr41       Cr  0.16744976  0.83728382  0.36653002     1.93700
Cr42       Cr  0.13162433  0.76176663  0.38098487     1.93200
Cr43       Cr  0.12570720  0.84706105  0.41033609     1.39100
O44         O  0.14116225  0.81523974  0.38553602    -1.22000
O45         O  0.40871213  0.63561718  0.44398156    -0.84200
O46         O  0.35922780  0.68752487  0.43285387    -0.81300
C47         C  0.37501366  0.71967492  0.44305750     0.99200
O48         O  0.38999468  0.73763697  0.42638024    -0.81300
O49         O  0.41836708  0.74865997  0.37580607    -0.84000
C50         C  0.44612561  0.73204517  0.38506551     1.03800
O51         O  0.44929361  0.69598900  0.39586336    -0.76700
O52         O  0.44054828  0.62059664  0.41592220    -0.76900
C53         C  0.43603933  0.62473733  0.44342654     1.03700
O54         O  0.37390732  0.58924872  0.38813625    -0.84200
O55         O  0.32526424  0.64935758  0.37421727    -0.81300
C56         C  0.31247542  0.68470063  0.37283906     0.99200
O57         O  0.32978361  0.71696776  0.37741832    -0.81300
O58         O  0.36023056  0.71836324  0.33156799    -0.83900
C59         C  0.37839754  0.70777558  0.31575802     1.03700
O60         O  0.40369647  0.68568513  0.32955682    -0.76800
O61         O  0.39302005  0.60676564  0.34941852    -0.76900
C62         C  0.37988373  0.58079444  0.36251067     1.03700
Cr63       Cr  0.36837263  0.64240851  0.40766362     1.93700
Cr64       Cr  0.37575106  0.72648281  0.37867857     1.93200
Cr65       Cr  0.41898451  0.65348045  0.37334360     1.39100
O66         O  0.38744659  0.67374675  0.38590736    -1.22000
O67         O  0.06413357  0.61318309  0.07458348    -0.84200
O68         O  0.08767584  0.68080268  0.05462758    -0.81300
C69         C  0.09674341  0.71727465  0.05372620     0.99200
O70         O  0.10322191  0.73999916  0.07839138    -0.81300
O71         O  0.05340473  0.75107722  0.10514914    -0.84000
C72         C  0.03502136  0.74257502  0.12140589     1.03800
O73         O  0.03903762  0.70973670  0.13773177    -0.76700
O74         O  0.02977626  0.64781105  0.09136829    -0.76900
C75         C  0.03584641  0.62717510  0.06924253     1.03700
O76         O  0.12385085  0.60599202  0.12946280    -0.84200
O77         O  0.14822225  0.67255202  0.10445311    -0.81300
C78         C  0.16186321  0.70060876  0.12423097     0.99200
O79         O  0.14660572  0.71998023  0.13981152    -0.81300
O80         O  0.09974753  0.73475671  0.16748359    -0.83100
C81         C  0.10085235  0.70788215  0.18896463     1.03700
O82         O  0.09218429  0.67065390  0.18118269    -0.76800
O83         O  0.07866654  0.59972274  0.13965194    -0.76900
C84         C  0.10545538  0.58474095  0.14012010     1.03700
Cr85       Cr  0.10487439  0.64570279  0.09324276     1.93700
Cr86       Cr  0.09958297  0.73190377  0.12212261     1.93200
Cr87       Cr  0.06216099  0.65797327  0.13595749     1.39100
O88         O  0.08945844  0.67861128  0.11752652    -1.22000
O89         O  0.32356245  0.13378693  0.06556947    -0.84200
O90         O  0.37272183  0.18592685  0.07745347    -0.81300
C91         C  0.35620607  0.21716237  0.06508604     0.99200
O92         O  0.33887433  0.23475890  0.07952520    -0.81300
O93         O  0.30671869  0.24754678  0.12733995    -0.84000
C94         C  0.27960331  0.22968529  0.11949475     1.03800
O95         O  0.27772684  0.19280985  0.11086035    -0.76700
O96         O  0.29086671  0.11821038  0.09268902    -0.76900
C97         C  0.29603386  0.12329183  0.06556466     1.03700
O98         O  0.35703398  0.08810921  0.12289911    -0.84200
O99         O  0.40413299  0.14973147  0.13801450    -0.81300
C100        C  0.41598176  0.18547617  0.13922820     0.99200
O101        O  0.39773879  0.21723849  0.13230737    -0.81300
O102        O  0.36434512  0.22059710  0.17475784    -0.83900
C103        C  0.34653731  0.20836348  0.19043803     1.03700
O104        O  0.32257754  0.18464392  0.17713178    -0.76800
O105        O  0.33704983  0.10636357  0.16054392    -0.76900
C106        C  0.35100717  0.08010596  0.14862316     1.03700
Cr107      Cr  0.36254908  0.14137518  0.10294652     1.93700
Cr108      Cr  0.35082464  0.22607915  0.12760203     1.93200
Cr109      Cr  0.30973634  0.15174094  0.13460566     1.39100
O110        O  0.34115645  0.17287491  0.12234501    -1.22000
O111        O  0.16167231  0.11386896  0.43217895    -0.84200
O112        O  0.13649173  0.18163252  0.45088033    -0.81300
C113        C  0.12611598  0.21784121  0.45056008     0.99200
O114        O  0.11889603  0.23963424  0.42515300    -0.81300
O115        O  0.16820371  0.25206211  0.39714313    -0.84000
C116        C  0.18670427  0.24306155  0.38098609     1.03800
O117        O  0.18315945  0.20938794  0.36603184    -0.76700
O118        O  0.19410307  0.14770358  0.41236177    -0.76900
C119        C  0.18963923  0.12746925  0.43555253     1.03700
O120        O  0.10128128  0.10465906  0.37831470    -0.84200
O121        O  0.07545887  0.17075992  0.40160879    -0.81300
C122        C  0.06036305  0.19728686  0.38050912     0.99200
O123        O  0.07519108  0.21758406  0.36484379    -0.81300
O124        O  0.12157659  0.23346975  0.33641904    -0.83900
C125        C  0.12105001  0.20675369  0.31535029     1.03700
O126        O  0.13009974  0.16958909  0.32350115    -0.76800
O127        O  0.14532025  0.09890668  0.36581241    -0.76900
C128        C  0.11916163  0.08374188  0.36679578     1.03700
Cr129      Cr  0.11983287  0.14533761  0.41322770     1.93700
Cr130      Cr  0.12225592  0.23103413  0.38165491     1.93200
Cr131      Cr  0.16082627  0.15742986  0.36854274     1.39100
O132        O  0.13384978  0.17800099  0.38750869    -1.22000
O133        O  0.43352310  0.36683956  0.41794709    -0.84200
O134        O  0.44105568  0.28979440  0.39856596    -0.81300
C135        C  0.43708647  0.25443006  0.38662589     0.99200
O136        O  0.40878272  0.23987392  0.37645552    -0.81300
O137        O  0.38051277  0.25186243  0.42680988    -0.84000
C138        C  0.36543620  0.26989935  0.44323011     1.03800
O139        O  0.35056414  0.30336270  0.43394178    -0.76700
O140        O  0.40062794  0.35429466  0.44536783    -0.76900
C141        C  0.42819349  0.36422046  0.44512568     1.03700
O142        O  0.38790127  0.38257857  0.35140407    -0.84200
O143        O  0.39682867  0.30333550  0.33227201    -0.81300
C144        C  0.37085511  0.28348870  0.31784602     0.99200
O145        O  0.35151086  0.27476814  0.33275817    -0.81300
O146        O  0.32076795  0.27577036  0.37820767    -0.83900
C147        C  0.30389943  0.30868279  0.37358841     1.03700
O148        O  0.31725830  0.34349293  0.37519644    -0.76800
O149        O  0.36700124  0.40145515  0.38849726    -0.76900
C150        C  0.37484813  0.40948149  0.36371717     1.03700
Cr151      Cr  0.41213791  0.33456408  0.37573500     1.93700
Cr152      Cr  0.36660924  0.26439691  0.37951278     1.93200
Cr153      Cr  0.36046955  0.34858149  0.40866405     1.39100
O154        O  0.37950597  0.31633847  0.38741290    -1.22000
O155        O  0.02520243  0.34939777  0.09443652    -0.84200
O156        O  0.03392185  0.28823903  0.14170077    -0.81300
C157        C  0.02992108  0.25380647  0.12786265     0.99200
O158        O  0.04779502  0.24327713  0.11150521    -0.81300
O159        O  0.09574279  0.25200582  0.08215827    -0.84000
C160        C  0.08930028  0.27410224  0.05700149     1.03800
O161        O  0.08076597  0.31116694  0.05694007    -0.76700
O162        O  0.05967292  0.38162535  0.07650788    -0.76900
C163        C  0.03115634  0.36958434  0.07194949     1.03700
O164        O  0.07582201  0.39570244  0.14125715    -0.84200
O165        O  0.08828110  0.32538214  0.18391778    -0.81300
C166        C  0.09693229  0.28810616  0.19228392     0.99200
O167        O  0.09574386  0.26085022  0.17143546    -0.81300
O168        O  0.14170800  0.27207629  0.14181355    -0.83900
C169        C  0.15678943  0.29097740  0.12570031     1.03700
O170        O  0.14245873  0.31824218  0.10503738    -0.76800
O171        O  0.12014399  0.38652783  0.12979799    -0.76900
C172        C  0.10274427  0.40904872  0.14083673     1.03700
Cr173      Cr  0.05801020  0.33842892  0.13872351     1.93700
Cr174      Cr  0.09412446  0.26185503  0.12599694     1.93200
Cr175      Cr  0.09960078  0.34681497  0.09456549     1.39100
O176        O  0.08441025  0.31552624  0.12014530    -1.22000
C177        C  0.47298955  0.37602534  0.03721277     0.24700
C178        C  0.00550225  0.37744549  0.03954561    -0.23400
C179        C  0.01358538  0.38061029  0.01062633     0.19600
C180        C  0.48593421  0.38179139  0.48076628     0.24600
C181        C  0.45398988  0.37107959  0.47779717    -0.23300
C182        C  0.44901060  0.37741756  0.00639856     0.19600
F183        F  0.41777496  0.37604635  0.00541007    -0.13300
F184        F  0.46384390  0.37323603  0.06411673    -0.15700
F185        F  0.99281548  0.39275148  0.45423497    -0.15700
F186        F  0.03949344  0.39586417  0.51336435    -0.13300
C187        C  0.12964741  0.24059837  0.23579053     0.24700
C188        C  0.10599261  0.27224756  0.22596597    -0.23400
C189        C  0.08567073  0.27910602  0.24442072     0.19600
C190        C  0.08874705  0.25469734  0.27196306     0.24600
C191        C  0.11241701  0.22309779  0.28182214    -0.23300
C192        C  0.13282469  0.21630522  0.26342800     0.19600
F193        F  0.15679430  0.18755526  0.27301756    -0.13300
F194        F  0.14936378  0.23269029  0.21805093    -0.15700
F195        F  0.06876398  0.26227849  0.28946630    -0.15700
F196        F  0.06175552  0.30791923  0.23487369    -0.13300
C197        C  0.11104632  0.20534314  0.50009594     0.24700
C198        C  0.11776514  0.23334773  0.47832278    -0.23400
C199        C  0.11073783  0.27558066  0.47985799     0.19600
C200        C  0.08342637  0.27633197  0.99851997     0.24600
C201        C  0.09721150  0.25828742  0.02931438    -0.23300
C202        C  0.12305378  0.23001354  0.03493208     0.19600
F203        F  0.13792429  0.21326747  0.06490382    -0.13300
F204        F  0.11598863  0.16407548  0.49840625    -0.15700
F205        F  0.05824553  0.30320518  0.99240195    -0.15700
F206        F  0.11658648  0.30349500  0.45904400    -0.13300
C207        C  0.21974880  0.26782595  0.34762052     0.24700
C208        C  0.21219027  0.27083402  0.37681787    -0.23400
C209        C  0.23204611  0.29524951  0.40208410     0.19600
C210        C  0.26057676  0.31246276  0.39936053     0.24600
C211        C  0.26969217  0.30500963  0.37156598    -0.23300
C212        C  0.24837921  0.28404475  0.34532590     0.19600
F213        F  0.25643851  0.27666788  0.31823654    -0.13300
F214        F  0.20033948  0.24661250  0.32175446    -0.15700
F215        F  0.28085581  0.33290894  0.42514202    -0.15700
F216        F  0.22550801  0.29932776  0.43034955    -0.13300
C217        C  0.47716349  0.19534805  0.39238607     0.24700
C218        C  0.46509507  0.23451355  0.38017452    -0.23400
C219        C  0.48193196  0.25765616  0.36345806     0.19600
C220        C  0.01200366  0.24518931  0.36249119     0.24600
C221        C  0.02570760  0.20725981  0.37657428    -0.23300
C222        C  0.50712320  0.18143283  0.39061303     0.19600
F223        F  0.51867055  0.14415724  0.40396521    -0.13300
F224        F  0.46098846  0.17166174  0.40767703    -0.15700
F225        F  0.02804339  0.27059751  0.34819286    -0.15700
F226        F  0.47018591  0.29483964  0.34996933    -0.13300
C227        C  0.33029923  0.22299526  0.23997131     0.24700
C228        C  0.35327720  0.22531865  0.22390289    -0.23400
C229        C  0.38181038  0.24813587  0.23873756     0.19600
C230        C  0.38696078  0.26830013  0.26840709     0.24600
C231        C  0.36395786  0.26615769  0.28445304    -0.23300
C232        C  0.33546868  0.24313641  0.26971014     0.19600
F233        F  0.31233253  0.23968135  0.28403303    -0.13300
F234        F  0.30240534  0.20189004  0.22670759    -0.15700
F235        F  0.41485856  0.28942080  0.28155331    -0.15700
F236        F  0.40512574  0.25117883  0.22461468    -0.13300
C237        C  0.37230274  0.20611789  0.01598128     0.24700
C238        C  0.36018866  0.23286420  0.03501608    -0.23400
C239        C  0.35573342  0.27472036  0.02689538     0.19600
C240        C  0.39082116  0.25820315  0.50130803     0.24600
C241        C  0.36375094  0.25400491  0.47353617    -0.23300
C242        C  0.33292840  0.24896759  0.47631131     0.19600
F243        F  0.30636829  0.24640572  0.44929269    -0.13300
F244        F  0.37738930  0.16525571  0.02333044    -0.15700
F245        F  0.42040196  0.26518940  0.49871593    -0.15700
F246        F  0.34532819  0.30144980  0.04533439    -0.13300
C247        C  0.99703706  0.23223741  0.16237548     0.24700
C248        C  0.00496564  0.22662932  0.13358317    -0.23400
C249        C  0.48762105  0.19977496  0.11152607     0.19600
C250        C  0.46012068  0.18116484  0.11528995     0.24600
C251        C  0.45001809  0.19116164  0.14199964    -0.23300
C252        C  0.46930740  0.21667689  0.16638099     0.19600
F253        F  0.46007617  0.22670088  0.19233887    -0.13300
F254        F  0.01495250  0.25716514  0.18653991    -0.15700
F255        F  0.44149736  0.15672773  0.09118427    -0.15700
F256        F  0.49506728  0.19267091  0.08407777    -0.13300
C257        C  0.23911661  0.28853935  0.11244310     0.24700
C258        C  0.25037688  0.24888275  0.12403671    -0.23400
C259        C  0.23258422  0.22555011  0.13972000     0.19600
C260        C  0.20343124  0.24037984  0.14221442     0.24600
C261        C  0.19075285  0.27890998  0.12862904    -0.23300
C262        C  0.20947229  0.30327775  0.11438654     0.19600
F263        F  0.19877055  0.34106947  0.10156151    -0.13300
F264        F  0.25591196  0.31215326  0.09777356    -0.15700
F265        F  0.18691973  0.21582658  0.15661088    -0.15700
F266        F  0.24337946  0.18774441  0.15255223    -0.13300
C267        C  0.27746201  0.12683068  0.00375999     0.24700
C268        C  0.27002520  0.11951692  0.03278678    -0.23400
C269        C  0.23733874  0.11389285  0.02971079     0.19600
C270        C  0.21300088  0.11640283  0.99896190     0.24600
C271        C  0.21673419  0.12183083  0.46740988    -0.23300
C272        C  0.24893268  0.12897828  0.46934640     0.19600
F273        F  0.25661251  0.13490633  0.44182034    -0.13300
F274        F  0.30400936  0.13890670  0.49940813    -0.15700
F275        F  0.18182025  0.11224630  0.99765275    -0.15700
F276        F  0.22860878  0.10781118  0.05658971    -0.13300
C277        C  0.09468133  0.51913362  0.16563325     0.24700
C278        C  0.11272756  0.54047407  0.14918227    -0.23400
C279        C  0.13335455  0.51751312  0.13670521     0.19600
C280        C  0.13265376  0.47416978  0.13683790     0.24600
C281        C  0.11127057  0.45297685  0.14945772    -0.23300
C282        C  0.09396494  0.47594054  0.16575365     0.19600
F283        F  0.07461399  0.45674479  0.18013244    -0.13300
F284        F  0.07602948  0.54005269  0.17988214    -0.15700
F285        F  0.15074694  0.45331052  0.12194906    -0.15700
F286        F  0.15205668  0.53676843  0.12162117    -0.13300
C287        C  0.39877415  0.51514380  0.34557641     0.24700
C288        C  0.37363067  0.53854305  0.35021011    -0.23400
C289        C  0.34557717  0.51864096  0.35122585     0.19600
C290        C  0.34440999  0.47564537  0.35191879     0.24600
C291        C  0.37122205  0.45216423  0.35141432    -0.23300
C292        C  0.39754429  0.47199473  0.34609679     0.19600
F293        F  0.42387557  0.44994855  0.34585064    -0.13300
F294        F  0.42631491  0.53375117  0.34511258    -0.15700
F295        F  0.31827878  0.45700709  0.35595712    -0.15700
F296        F  0.32058786  0.54088160  0.35470379    -0.13300
C297        C  0.45337348  0.61696393  0.00271368     0.24700
C298        C  0.46236017  0.61902112  0.47617623    -0.23400
C299        C  0.49506260  0.61224037  0.47939747     0.19600
C300        C  0.01867286  0.62252788  0.00743335     0.24600
C301        C  0.01055918  0.62090081  0.03641594    -0.23300
C302        C  0.47728735  0.61813524  0.03361326     0.19600
F303        F  0.46815490  0.61721183  0.06058137    -0.13300
F304        F  0.42213518  0.61418322  0.00150823    -0.15700
F305        F  0.05094346  0.61390678  0.51109685    -0.15700
F306        F  0.00470550  0.61204563  0.45145925    -0.13300
C307        C  0.12638047  0.01915679  0.33794438     0.24700
C308        C  0.11179678  0.03968042  0.35806413    -0.23400
C309        C  0.09441845  0.01614469  0.37396329     0.19600
C310        C  0.09489336  0.97293915  0.37289930     0.24600
C311        C  0.11279263  0.95230224  0.35592879    -0.23300
C312        C  0.12690706  0.97588467  0.33692549     0.19600
F313        F  0.14272987  0.95704921  0.31870150    -0.13300
F314        F  0.14159278  0.04091197  0.32052828    -0.15700
F315        F  0.08055652  0.95151267  0.39130896    -0.15700
F316        F  0.07960852  0.03458227  0.39328357    -0.13300
C317        C  0.13473417  0.75390228  0.23258925     0.24700
C318        C  0.11026617  0.72371899  0.22269123    -0.23400
C319        C  0.09062826  0.71696233  0.24195272     0.19600
C320        C  0.09540442  0.73976137  0.27048420     0.24600
C321        C  0.11984150  0.76997220  0.28032483    -0.23300
C322        C  0.13946546  0.77673751  0.26107778     0.19600
F323        F  0.16422911  0.80394435  0.27066236    -0.13300
F324        F  0.15408458  0.76141443  0.21439944    -0.15700
F325        F  0.07615195  0.73220116  0.28877400    -0.15700
F326        F  0.06585213  0.68978039  0.23238244    -0.13300
C327        C  0.11234192  0.78912127  0.49229056     0.24700
C328        C  0.12890578  0.76207735  0.47802009    -0.23400
C329        C  0.13163123  0.72003406  0.48627050     0.19600
C330        C  0.11484361  0.70364224  0.00634006     0.24600
C331        C  0.10430590  0.73195318  0.02526148    -0.23300
C332        C  0.10645899  0.77450830  0.02015831     0.19600
F333        F  0.09631029  0.80254606  0.03788431    -0.13300
F334        F  0.10792527  0.82959055  0.48335699    -0.15700
F335        F  0.11455749  0.66227156  0.01168537    -0.15700
F336        F  0.14764141  0.69363073  0.47268395    -0.13300
C337        C  0.25510278  0.70484420  0.34491444     0.24700
C338        C  0.27893024  0.68935147  0.37261592    -0.23400
C339        C  0.27273007  0.68798489  0.40248590     0.19600
C340        C  0.24442259  0.70563752  0.40523664     0.24600
C341        C  0.22193070  0.72461522  0.37805503    -0.23300
C342        C  0.22666330  0.72183251  0.34750070     0.19600
F343        F  0.20441423  0.73779349  0.32033316    -0.13300
F344        F  0.26029183  0.70598613  0.31580021    -0.15700
F345        F  0.24055121  0.70761628  0.43492438    -0.15700
F346        F  0.29540063  0.67286511  0.42967732    -0.13300
C347        C  0.48646805  0.78976760  0.39196748     0.24700
C348        C  0.47459098  0.75107892  0.37950246    -0.23400
C349        C  0.49193086  0.72762805  0.36348597     0.19600
C350        C  0.02168794  0.74356139  0.36062862     0.24600
C351        C  0.03509381  0.78041415  0.37628421    -0.23300
C352        C  0.51619687  0.80368750  0.39014172     0.19600
F353        F  0.02853538  0.83965912  0.40700113    -0.13300
F354        F  0.47038582  0.81285281  0.40769881    -0.15700
F355        F  0.03758551  0.72033625  0.34476230    -0.15700
F356        F  0.48075459  0.69027209  0.35064003    -0.13300
C357        C  0.38533593  0.97358643  0.15956530     0.24700
C358        C  0.35881441  0.95149520  0.16234278    -0.23400
C359        C  0.33490998  0.97276467  0.17113451     0.19600
C360        C  0.33454492  0.01607060  0.17115217     0.24600
C361        C  0.35805106  0.03805604  0.16236222    -0.23300
C362        C  0.38483534  0.01663827  0.15931179     0.19600
F363        F  0.40888482  0.03731440  0.15270039    -0.13300
F364        F  0.40998764  0.95356480  0.15341400    -0.15700
F365        F  0.30894926  0.03614165  0.17529475    -0.15700
F366        F  0.30964411  0.95212161  0.17527098    -0.13300
C367        C  0.33793334  0.77138402  0.23796016     0.24700
C368        C  0.35684128  0.76187786  0.21834403    -0.23400
C369        C  0.38258396  0.73310465  0.23086846     0.19600
C370        C  0.38922884  0.71494000  0.26190000     0.24600
C371        C  0.37039547  0.72458722  0.28156753    -0.23300
C372        C  0.34452908  0.75318450  0.26893096     0.19600
F373        F  0.32554293  0.76444255  0.28667800    -0.13300
F374        F  0.31291565  0.79854262  0.22735438    -0.15700
F375        F  0.41434054  0.68795091  0.27262646    -0.15700
F376        F  0.40155818  0.72199543  0.21307751    -0.13300
C377        C  0.36478048  0.79441486  0.00618986     0.24700
C378        C  0.35694297  0.76563573  0.02702054    -0.23400
C379        C  0.35861734  0.72339496  0.02160780     0.19600
C380        C  0.36472625  0.70860566  0.49502571     0.24600
C381        C  0.37230639  0.73610420  0.47319866    -0.23300
C382        C  0.37147399  0.77865071  0.47787107     0.19600
F383        F  0.37761767  0.80575602  0.45670093    -0.13300
F384        F  0.36414731  0.83570756  0.01134553    -0.15700
F385        F  0.36519862  0.66702897  0.49111738    -0.15700
F386        F  0.35280826  0.69508748  0.04216173    -0.13300
C387        C  0.45456371  0.79718587  0.09827460     0.24700
C388        C  0.44986524  0.80003746  0.12880696    -0.23400
C389        C  0.47551488  0.79061156  0.15710376     0.19600
C390        C  0.00529082  0.77572124  0.15447423     0.24600
C391        C  0.00904849  0.77018985  0.12367523    -0.23300
C392        C  0.48363675  0.78210853  0.09588248     0.19600
F393        F  0.48622195  0.77555540  0.06600992    -0.13300
F394        F  0.43018548  0.80609723  0.07041820    -0.15700
F395        F  0.02920088  0.76410158  0.18208359    -0.15700
F396        F  0.47152583  0.79282114  0.18673807    -0.13300
C397        C  0.24602624  0.70216683  0.11625834     0.24700
C398        C  0.25199021  0.74488487  0.11713919    -0.23400
C399        C  0.22932685  0.77193007  0.12332382     0.19600
C400        C  0.20130154  0.75694206  0.12777935     0.24600
C401        C  0.19457852  0.71446768  0.12567342    -0.23300
C402        C  0.21729900  0.68712669  0.11997176     0.19600
F403        F  0.21151688  0.64590584  0.11765412    -0.13300
F404        F  0.26733580  0.67517525  0.11065167    -0.15700
F405        F  0.17975079  0.78459531  0.13222095    -0.15700
F406        F  0.23420070  0.81340980  0.12520926    -0.13300
C407        C  0.25163785  0.88233131  0.46727773     0.24700
C408        C  0.21892546  0.87997547  0.46455879    -0.23400
C409        C  0.21318318  0.87911105  0.99546319     0.19600
C410        C  0.23720207  0.88094249  0.02641452     0.24600
C411        C  0.27019481  0.88138900  0.02957352    -0.23300
C412        C  0.27810100  0.88152340  0.00034955     0.19600
F413        F  0.30682460  0.88805226  0.49861433    -0.13300
F414        F  0.26054235  0.88073642  0.44020079    -0.15700
F415        F  0.22801776  0.88005894  0.05333712    -0.15700
F416        F  0.18187635  0.87706456  0.99412102    -0.13300
O417        O  0.29035164  0.88111455  0.58709684    -0.84200
O418        O  0.27959439  0.80538541  0.60532220    -0.81300
C419        C  0.28205674  0.76849742  0.61427017     0.99200
O420        O  0.30941004  0.75090667  0.62243798    -0.81300
O421        O  0.33780271  0.76394911  0.57233701    -0.84000
C422        C  0.35317600  0.78195812  0.55607845     1.03800
O423        O  0.36980558  0.81325560  0.56706168    -0.76700
O424        O  0.32142916  0.86658152  0.55804277    -0.76900
C425        C  0.29453575  0.87813335  0.55938083     1.03700
O426        O  0.33852116  0.89138547  0.65340362    -0.84200
O427        O  0.32616362  0.81224402  0.67133683    -0.81300
C428        C  0.35070550  0.78863717  0.68433371     0.99200
O429        O  0.36816749  0.77729789  0.66792883    -0.81300
O430        O  0.39854806  0.78067457  0.62187874    -0.83900
C431        C  0.41662305  0.81226016  0.62736072     1.03700
O432        O  0.40475813  0.84805353  0.62673481    -0.76800
O433        O  0.35740483  0.91003291  0.61481428    -0.76900
C434        C  0.35121288  0.91800531  0.64040851     1.03700
Cr435      Cr  0.31133174  0.84619659  0.62853676     1.93700
Cr436      Cr  0.35244217  0.77228798  0.62037371     1.93200
Cr437      Cr  0.36173966  0.85738579  0.59383873     1.39100
O438        O  0.34211811  0.82560438  0.61495110    -1.22000
O439        O  0.20095958  0.85039395  0.91115017    -0.84200
O440        O  0.19075892  0.79026600  0.86347288    -0.81300
C441        C  0.19540809  0.75630725  0.87844965     0.99200
O442        O  0.17763219  0.74596965  0.89499158    -0.81300
O443        O  0.12865072  0.75428264  0.92370503    -0.84000
C444        C  0.13662946  0.77565515  0.94915501     1.03800
O445        O  0.14637205  0.81192789  0.94896592    -0.76700
O446        O  0.16703737  0.88259491  0.92992986    -0.76900
C447        C  0.19542965  0.86997234  0.93406424     1.03700
O448        O  0.15012585  0.89869213  0.86519187    -0.84200
O449        O  0.13611556  0.82963008  0.82180079    -0.81300
C450        C  0.12763971  0.79253906  0.81322738     0.99200
O451        O  0.13024890  0.76462021  0.83426309    -0.81300
O452        O  0.08421818  0.77735567  0.86324567    -0.83900
C453        C  0.06925543  0.79574190  0.87961802     1.03700
O454        O  0.08381646  0.82131971  0.90131081    -0.76800
O455        O  0.10623755  0.89051531  0.87763182    -0.76900
C456        C  0.12375517  0.91291977  0.86663301     1.03700
Cr457      Cr  0.16736905  0.84106100  0.86690705     1.93700
Cr458      Cr  0.13132928  0.76509616  0.87981515     1.93200
Cr459      Cr  0.12686023  0.84906692  0.91202475     1.39100
O460        O  0.14131494  0.81838301  0.88582037    -1.22000
O461        O  0.40835466  0.64043886  0.94276386    -0.84200
O462        O  0.35893026  0.69310691  0.93190111    -0.81300
C463        C  0.37602357  0.72389669  0.94319776     0.99200
O464        O  0.39125597  0.74192724  0.92684595    -0.81300
O465        O  0.41969688  0.75403245  0.87679889    -0.84000
C466        C  0.44703026  0.73642218  0.88484303     1.03800
O467        O  0.44962785  0.69952991  0.89392947    -0.76700
O468        O  0.43904676  0.62417231  0.91361160    -0.76900
C469        C  0.43502037  0.62789450  0.94140808     1.03700
O470        O  0.37321904  0.59475780  0.88708458    -0.84200
O471        O  0.32539808  0.65586673  0.87292969    -0.81300
C472        C  0.31296707  0.69143434  0.87135807     0.99200
O473        O  0.33056855  0.72350079  0.87681049    -0.81300
O474        O  0.36125512  0.72681799  0.83143173    -0.83900
C475        C  0.37885446  0.71546465  0.81521381     1.03700
O476        O  0.40315213  0.69145415  0.82825886    -0.76800
O477        O  0.39059165  0.61220778  0.84725217    -0.76900
C478        C  0.37794834  0.58616439  0.86086572     1.03700
Cr479      Cr  0.36807095  0.64812185  0.90654990     1.93700
Cr480      Cr  0.37675270  0.73255061  0.87883809     1.93200
Cr481      Cr  0.41799971  0.65814334  0.87146841     1.39100
O482        O  0.38740122  0.67934643  0.88492144    -1.22000
O483        O  0.06508157  0.61375465  0.57612844    -0.84200
O484        O  0.08574642  0.68169688  0.55336787    -0.81300
C485        C  0.09400487  0.71834826  0.55147081     0.99200
O486        O  0.10071591  0.74204889  0.57552109    -0.81300
O487        O  0.05153277  0.75417057  0.60275667    -0.84000
C488        C  0.03344227  0.74563906  0.61934239     1.03800
O489        O  0.03782465  0.71277520  0.63573355    -0.76700
O490        O  0.03019960  0.64822455  0.59209751    -0.76900
C491        C  0.03651935  0.62659694  0.57061379     1.03700
O492        O  0.12510681  0.61075729  0.63000284    -0.84200
O493        O  0.14717682  0.67721887  0.60236854    -0.81300
C494        C  0.16090658  0.70563089  0.62173940     0.99200
O495        O  0.14546413  0.72538862  0.63698357    -0.81300
O496        O  0.09850770  0.74116079  0.66474277    -0.83100
C497        C  0.09972798  0.71578350  0.68718813     1.03700
O498        O  0.09212165  0.67788680  0.68079005    -0.76800
O499        O  0.08075454  0.60401538  0.64180668    -0.76900
C500        C  0.10731090  0.58921213  0.64128588     1.03700
Cr501      Cr  0.10465196  0.64865500  0.59288178     1.93700
Cr502      Cr  0.09803978  0.73594395  0.61955693     1.93200
Cr503      Cr  0.06246983  0.66168077  0.63607324     1.39100
O504        O  0.08894198  0.68219822  0.61662773    -1.22000
O505        O  0.31956698  0.14957793  0.56020158    -0.84200
O506        O  0.37029903  0.20081517  0.57314392    -0.81300
C507        C  0.35507787  0.23414798  0.56464303     0.99200
O508        O  0.33983945  0.25060101  0.58152261    -0.81300
O509        O  0.31112144  0.25836318  0.63097646    -0.84000
C510        C  0.28294837  0.24352756  0.62012056     1.03800
O511        O  0.27909363  0.20720224  0.60993387    -0.76700
O512        O  0.28916280  0.13116081  0.58908206    -0.76900
C513        C  0.29318194  0.13585767  0.56138601     1.03700
O514        O  0.35382159  0.09956603  0.61467766    -0.84200
O515        O  0.40305290  0.15766668  0.63054356    -0.81300
C516        C  0.41651847  0.19252284  0.63393153     0.99200
O517        O  0.39977893  0.22549495  0.63009023    -0.81300
O518        O  0.36886118  0.22444629  0.67518363    -0.83900
C519        C  0.34975562  0.21469622  0.69010839     1.03700
O520        O  0.32434692  0.19388092  0.67555181    -0.76800
O521        O  0.33651162  0.11596509  0.65481927    -0.76900
C522        C  0.34864579  0.09013185  0.64063427     1.03700
Cr523      Cr  0.36012231  0.15391653  0.59670324     1.93700
Cr524      Cr  0.35376759  0.23593564  0.62849602     1.93200
Cr525      Cr  0.30987739  0.16332009  0.63162452     1.39100
O526        O  0.34134720  0.18411613  0.61935979    -1.22000
O527        O  0.16624665  0.11896173  0.93387978    -0.84200
O528        O  0.14211246  0.18807708  0.95261227    -0.81300
C529        C  0.12998214  0.22344946  0.95166148     0.99200
O530        O  0.12086831  0.24401002  0.92565607    -0.81300
O531        O  0.17015892  0.25778465  0.89972451    -0.84000
C532        C  0.19002555  0.24979806  0.88505890     1.03800
O533        O  0.18784450  0.21685761  0.86923866    -0.76700
O534        O  0.19910787  0.15435513  0.91581081    -0.76900
C535        C  0.19419647  0.13295210  0.93826080     1.03700
O536        O  0.10631243  0.11022376  0.88090374    -0.84200
O537        O  0.08071796  0.17624369  0.90465922    -0.81300
C538        C  0.06505472  0.20097732  0.88240507     0.99200
O539        O  0.07912633  0.21915267  0.86502502    -0.81300
O540        O  0.12585860  0.23829146  0.83786045    -0.83900
C541        C  0.12617316  0.21148766  0.81713593     1.03700
O542        O  0.13597368  0.17473673  0.82584513    -0.76800
O543        O  0.15068133  0.10472237  0.86871668    -0.76900
C544        C  0.12448417  0.08930739  0.86972802     1.03700
Cr545      Cr  0.12488178  0.15087423  0.91558987     1.93700
Cr546      Cr  0.12528221  0.23547390  0.88271724     1.93200
Cr547      Cr  0.16618703  0.16357924  0.87134939     1.39100
O548        O  0.13836172  0.18328014  0.88946876    -1.22000
O549        O  0.43624618  0.37398520  0.91747174    -0.84200
O550        O  0.44553100  0.29787045  0.89922293    -0.81300
C551        C  0.44250685  0.26156567  0.88928312     0.99200
O552        O  0.41484650  0.24539982  0.88023722    -0.81300
O553        O  0.38830921  0.25869766  0.93155456    -0.84000
C554        C  0.37398243  0.27749623  0.94842107     1.03800
O555        O  0.35695646  0.30885788  0.93717830    -0.76700
O556        O  0.40346639  0.36289137  0.94526971    -0.76900
C557        C  0.43100497  0.37222016  0.94470588     1.03700
O558        O  0.38924227  0.38799636  0.85105145    -0.84200
O559        O  0.39941452  0.30805069  0.83316614    -0.81300
C560        C  0.37450714  0.28567390  0.81987806     0.99200
O561        O  0.35645751  0.27479918  0.83591249    -0.81300
O562        O  0.32681280  0.27665367  0.88357723    -0.83900
C563        C  0.30865176  0.30841702  0.87801700     1.03700
O564        O  0.32042651  0.34360482  0.87647026    -0.76800
O565        O  0.36696065  0.40554092  0.88727579    -0.76900
C566        C  0.37483160  0.41415720  0.86266110     1.03700
Cr567      Cr  0.41488118  0.34070322  0.87593936     1.93700
Cr568      Cr  0.37258752  0.26800567  0.88347104     1.93200
Cr569      Cr  0.36350187  0.35313570  0.90936509     1.39100
O570        O  0.38340443  0.32111325  0.88888697    -1.22000
O571        O  0.02587543  0.34921825  0.59670901    -0.84200
O572        O  0.03862867  0.28831007  0.64400198    -0.81300
C573        C  0.03478727  0.25455622  0.62911000     0.99200
O574        O  0.05268759  0.24517965  0.61247635    -0.81300
O575        O  0.09841064  0.25700695  0.58083347    -0.84000
C576        C  0.08759530  0.27790331  0.55501916     1.03800
O577        O  0.07746574  0.31411521  0.55546528    -0.76700
O578        O  0.05718458  0.38404261  0.57659178    -0.76900
C579        C  0.02964269  0.36943670  0.57315901     1.03700
O580        O  0.07728010  0.39841329  0.64175170    -0.84200
O581        O  0.09262227  0.32795338  0.68459492    -0.81300
C582        C  0.10199232  0.29084589  0.69274073     0.99200
O583        O  0.10158203  0.26420654  0.67163090    -0.81300
O584        O  0.14530646  0.28006116  0.63962914    -0.83900
C585        C  0.15804278  0.29914822  0.62144797     1.03700
O586        O  0.14121575  0.32393055  0.59989330    -0.76800
O587        O  0.11959756  0.39120795  0.62627182    -0.76900
C588        C  0.10316793  0.41286405  0.63910481     1.03700
Cr589      Cr  0.06071218  0.34008431  0.64007157     1.93700
Cr590      Cr  0.09831791  0.26611740  0.62555711     1.93200
Cr591      Cr  0.09805600  0.35075600  0.59211500     1.39100
O592        O  0.08633798  0.31895666  0.61985010    -1.22000
C593        C  0.47133659  0.36460281  0.53771554     0.24700
C594        C  0.00279990  0.37377300  0.54091825    -0.23400
C595        C  0.00925054  0.38492403  0.51204184     0.19600
C596        C  0.48993731  0.38110876  0.98040489     0.24600
C597        C  0.45697778  0.37871538  0.97723203    -0.23300
C598        C  0.44706310  0.36367818  0.50708654     0.19600
F599        F  0.41672018  0.35421522  0.50640832    -0.13300
F600        F  0.46329248  0.35540209  0.56458071    -0.15700
F601        F  0.99866594  0.38082134  0.95269969    -0.15700
F602        F  0.04497938  0.38067623  0.01212170    -0.13300
C603        C  0.13394424  0.24250000  0.73642509     0.24700
C604        C  0.11059915  0.27450666  0.72637640    -0.23400
C605        C  0.09041792  0.28212313  0.74490792     0.19600
C606        C  0.09370783  0.25864079  0.77298134     0.24600
C607        C  0.11742219  0.22714467  0.78332112    -0.23300
C608        C  0.13731453  0.21911007  0.76458748     0.19600
F609        F  0.16095687  0.18994992  0.77428598    -0.13300
F610        F  0.15334862  0.23352287  0.71857494    -0.15700
F611        F  0.07378043  0.26692886  0.79042335    -0.15700
F612        F  0.06639370  0.31075721  0.73495292    -0.13300
C613        C  0.13498856  0.22018664  0.01005280     0.24700
C614        C  0.12130952  0.23839708  0.97924496    -0.23400
C615        C  0.09547733  0.26677141  0.97369038     0.19600
C616        C  0.09782198  0.28968064  0.50305448     0.24600
C617        C  0.09222249  0.26189796  0.52553915    -0.23300
C618        C  0.09822096  0.21951262  0.52338226     0.19600
F619        F  0.09221711  0.19179224  0.54425052    -0.13300
F620        F  0.16009333  0.19314564  0.01624534    -0.15700
F621        F  0.09256992  0.33090153  0.50454514    -0.15700
F622        F  0.08098957  0.28439362  0.94397094    -0.13300
C623        C  0.21856775  0.29178331  0.85505868     0.24700
C624        C  0.21630450  0.27795545  0.88507726    -0.23400
C625        C  0.24317402  0.28128695  0.91321784     0.19600
C626        C  0.27279398  0.29393443  0.91091842     0.24600
C627        C  0.27592292  0.30424010  0.88048167    -0.23300
C628        C  0.24820181  0.30513908  0.85280636     0.19600
F629        F  0.25031194  0.31575324  0.82332354    -0.13300
F630        F  0.19253697  0.28942076  0.82753562    -0.15700
F631        F  0.29884918  0.29350442  0.93835611    -0.15700
F632        F  0.24161772  0.26812729  0.94239298    -0.13300
C633        C  0.48360194  0.20368721  0.89832257     0.24700
C634        C  0.47081270  0.24160842  0.88397115    -0.23400
C635        C  0.48681822  0.26329620  0.86570496     0.19600
C636        C  0.01813965  0.25028616  0.86521368     0.24600
C637        C  0.03117641  0.21228784  0.87960604    -0.23300
C638        C  0.51306867  0.18899843  0.89605783     0.19600
F639        F  0.52558218  0.15325705  0.91174732    -0.13300
F640        F  0.46870463  0.18223469  0.91618345    -0.15700
F641        F  0.03425889  0.27442834  0.85012685    -0.15700
F642        F  0.47475501  0.29983189  0.85112962    -0.13300
C643        C  0.33674270  0.22196432  0.74258663     0.24700
C644        C  0.35652237  0.23146800  0.72384353    -0.23400
C645        C  0.38182581  0.26017678  0.73674023     0.19600
C646        C  0.38712170  0.27848696  0.76723430     0.24600
C647        C  0.36737058  0.26893752  0.78604501    -0.23300
C648        C  0.34195767  0.24043717  0.77306603     0.19600
F649        F  0.32202397  0.22975660  0.78994017    -0.13300
F650        F  0.31225840  0.19460251  0.73156781    -0.15700
F651        F  0.41179157  0.30562514  0.77822752    -0.15700
F652        F  0.40155974  0.27136406  0.71974187    -0.13300
C653        C  0.32927144  0.24770962  0.50683614     0.24700
C654        C  0.35639676  0.25162171  0.53463850    -0.23400
C655        C  0.38713594  0.25732107  0.53181719     0.19600
C656        C  0.36273420  0.28961971  0.99997932     0.24600
C657        C  0.37346071  0.26257149  0.98009735    -0.23300
C658        C  0.37891017  0.22093498  0.98879061     0.19600
F659        F  0.38934774  0.19419824  0.97037205    -0.13300
F660        F  0.29973339  0.24024643  0.50938502    -0.15700
F661        F  0.35838347  0.33065757  0.99308635    -0.15700
F662        F  0.41367059  0.26030834  0.55881310    -0.13300
C663        C  0.00206899  0.22888695  0.66246439     0.24700
C664        C  0.00924108  0.22713634  0.63304431    -0.23400
C665        C  0.48856501  0.20638690  0.60649295     0.19600
C666        C  0.45956604  0.19011377  0.60836375     0.24600
C667        C  0.45069963  0.19613988  0.63640377    -0.23300
C668        C  0.47252765  0.21482502  0.66365024     0.19600
F669        F  0.46466990  0.22039381  0.69108107    -0.13300
F670        F  0.02219751  0.24837036  0.68892450    -0.15700
F671        F  0.43862405  0.17220370  0.58159799    -0.15700
F672        F  0.49491788  0.20401195  0.57802596    -0.13300
C673        C  0.23355514  0.28775393  0.59652737     0.24700
C674        C  0.25441339  0.26571077  0.62297669    -0.23400
C675        C  0.24462592  0.25775167  0.65018602     0.19600
C676        C  0.21392747  0.26991268  0.65040534     0.24600
C677        C  0.19226211  0.29064808  0.62337479    -0.23300
C678        C  0.20293204  0.30041486  0.59674319     0.19600
F679        F  0.18304898  0.31998141  0.56986239    -0.13300
F680        F  0.24217619  0.29516242  0.56973707    -0.15700
F681        F  0.20511839  0.26012949  0.67670484    -0.15700
F682        F  0.26424271  0.23605625  0.67597745    -0.13300
C683        C  0.27366133  0.13112950  0.49959323     0.24700
C684        C  0.26717490  0.12664847  0.52935766    -0.23400
C685        C  0.23532674  0.11663739  0.52739079     0.19600
C686        C  0.21052521  0.11408347  0.49691210     0.24600
C687        C  0.22048721  0.12532500  0.97029030    -0.23300
C688        C  0.25315322  0.13002362  0.97326578     0.19600
F689        F  0.26177228  0.13844878  0.94661555    -0.13300
F690        F  0.30840323  0.13254115  0.00465764    -0.15700
F691        F  0.18004196  0.10617819  0.49655035    -0.15700
F692        F  0.22775182  0.11090538  0.55497036    -0.13300
C693        C  0.09802329  0.52278857  0.66703730     0.24700
C694        C  0.11461045  0.54460418  0.64931867    -0.23400
C695        C  0.13311707  0.52185211  0.63417476     0.19600
C696        C  0.13177949  0.47853666  0.63332288     0.24600
C697        C  0.11180778  0.45695615  0.64755867    -0.23300
C698        C  0.09658097  0.47952887  0.66609943     0.19600
F699        F  0.07877550  0.45994548  0.68201609    -0.13300
F700        F  0.08156618  0.54344125  0.68377267    -0.15700
F701        F  0.14786116  0.45817985  0.61607670    -0.15700
F702        F  0.15016445  0.54142377  0.61744940    -0.13300
C703        C  0.39366465  0.52073356  0.83959709     0.24700
C704        C  0.37071614  0.54372424  0.84858885    -0.23400
C705        C  0.34453956  0.52314131  0.85356675     0.19600
C706        C  0.34381402  0.48010337  0.85420450     0.24600
C707        C  0.36925994  0.45691285  0.84984326    -0.23300
C708        C  0.39293406  0.47741444  0.84018735     0.19600
F709        F  0.41759022  0.45589815  0.83536549    -0.13300
F710        F  0.41903759  0.53987471  0.83440224    -0.15700
F711        F  0.31977590  0.46117550  0.86211532    -0.15700
F712        F  0.32125381  0.54472301  0.86096490    -0.13300
C713        C  0.45498618  0.62477474  0.50537532     0.24700
C714        C  0.46130004  0.61963842  0.97359409    -0.23400
C715        C  0.49430215  0.62010003  0.97674537     0.19600
C716        C  0.01949370  0.61406046  0.50944364     0.24600
C717        C  0.01121500  0.61803040  0.53822123    -0.23300
C718        C  0.47918684  0.62634488  0.53597800     0.19600
F719        F  0.47038189  0.63361053  0.56264018    -0.13300
F720        F  0.42409715  0.63033217  0.50464573    -0.15700
F721        F  0.04989732  0.62672931  0.00899395    -0.15700
F722        F  0.00348017  0.62778763  0.94952296    -0.13300
C723        C  0.13375875  0.02346972  0.84360973     0.24700
C724        C  0.11724124  0.04505323  0.86139908    -0.23400
C725        C  0.09725548  0.02252495  0.87503426     0.19600
C726        C  0.09681875  0.97922680  0.87410364     0.24600
C727        C  0.11624086  0.95753756  0.85939648    -0.23300
C728        C  0.13311680  0.98027744  0.84246871     0.19600
F729        F  0.15063202  0.96064290  0.82629257    -0.13300
F730        F  0.15196465  0.04399857  0.82863485    -0.15700
F731        F  0.07959913  0.95870503  0.89016324    -0.15700
F732        F  0.08024971  0.04199415  0.89181454    -0.13300
C733        C  0.12762725  0.76968660  0.72800303     0.24700
C734        C  0.10792863  0.73399617  0.72025327    -0.23400
C735        C  0.09194515  0.72148580  0.74177643     0.19600
C736        C  0.09617194  0.74327126  0.77064516     0.24600
C737        C  0.11686993  0.77791144  0.77900943    -0.23300
C738        C  0.13204084  0.79129656  0.75702986     0.19600
F739        F  0.15242750  0.82396114  0.76433408    -0.13300
F740        F  0.14302106  0.78357995  0.70750142    -0.15700
F741        F  0.08026325  0.73000534  0.79087529    -0.15700
F742        F  0.07131852  0.68907396  0.73438629    -0.13300
C743        C  0.11900284  0.78864591  0.99664031     0.24700
C744        C  0.12941230  0.76041399  0.97762652    -0.23400
C745        C  0.12721529  0.71782384  0.98261632     0.19600
C746        C  0.11795439  0.70504595  0.50867669     0.24600
C747        C  0.10142106  0.73211394  0.52298505    -0.23300
C748        C  0.09866536  0.77416043  0.51466191     0.19600
F749        F  0.08287267  0.80072009  0.52837426    -0.13300
F750        F  0.11941210  0.83003722  0.99145384    -0.15700
F751        F  0.12247005  0.66462387  0.51771269    -0.15700
F752        F  0.13715416  0.68992418  0.96462357    -0.13300
C753        C  0.25791778  0.71833096  0.84302567     0.24700
C754        C  0.27902579  0.69643333  0.86921688    -0.23400
C755        C  0.26994928  0.68821449  0.89690834     0.19600
C756        C  0.24127621  0.70497628  0.89946812     0.24600
C757        C  0.22132474  0.72973190  0.87416691    -0.23300
C758        C  0.22901674  0.73403838  0.84511585     0.19600
F759        F  0.20941916  0.75579364  0.81927148    -0.13300
F760        F  0.26632893  0.72689249  0.81626393    -0.15700
F761        F  0.23465803  0.70020916  0.92766578    -0.15700
F762        F  0.29040462  0.66747658  0.92278249    -0.13300
C763        C  0.48614781  0.79585586  0.89111909     0.24700
C764        C  0.47578337  0.75597120  0.88018957    -0.23400
C765        C  0.49423828  0.73252206  0.86541946     0.19600
C766        C  0.02342019  0.74545110  0.86341475     0.24600
C767        C  0.03522891  0.78443544  0.87579920    -0.23300
C768        C  0.51583819  0.81061367  0.88966038     0.19600
F769        F  0.02557419  0.84817163  0.89943101    -0.13300
F770        F  0.46850669  0.81955769  0.90477680    -0.15700
F771        F  0.04106026  0.71981226  0.85110848    -0.15700
F772        F  0.48420009  0.69451517  0.85321741    -0.13300
C773        C  0.38250126  0.98299335  0.65023295     0.24700
C774        C  0.35594772  0.96055698  0.65246985    -0.23400
C775        C  0.33027535  0.98161298  0.65822088     0.19600
C776        C  0.32950198  0.02480649  0.65800870     0.24600
C777        C  0.35439922  0.04715975  0.65207934    -0.23300
C778        C  0.38169008  0.02606932  0.64994179     0.19600
F779        F  0.40629710  0.04716138  0.64475656    -0.13300
F780        F  0.40789307  0.96319558  0.64536265    -0.15700
F781        F  0.30250022  0.04449790  0.65914964    -0.15700
F782        F  0.30395903  0.96067228  0.65951922    -0.13300
C783        C  0.33999009  0.78153998  0.73824117     0.24700
C784        C  0.35853515  0.77132079  0.71839323    -0.23400
C785        C  0.38388971  0.74199668  0.73079884     0.19600
C786        C  0.39015582  0.72344321  0.76165040     0.24600
C787        C  0.37139480  0.73331319  0.78135171    -0.23300
C788        C  0.34628085  0.76303260  0.76910503     0.19600
F789        F  0.32768820  0.77496132  0.78708346    -0.13300
F790        F  0.31556161  0.80957523  0.72790887    -0.15700
F791        F  0.41485265  0.69582814  0.77217663    -0.15700
F792        F  0.40281043  0.73062052  0.71302219    -0.13300
C793        C  0.36291255  0.79356306  0.50382515     0.24700
C794        C  0.35545650  0.76599876  0.52566587    -0.23400
C795        C  0.35620879  0.72350314  0.52093139     0.19600
C796        C  0.36770540  0.71000095  0.99562359     0.24600
C797        C  0.37460663  0.73874249  0.97424199    -0.23300
C798        C  0.37363692  0.78098518  0.98000774     0.19600
F799        F  0.37978554  0.80920631  0.95959149    -0.13300
F800        F  0.36216281  0.83511622  0.50777317    -0.15700
F801        F  0.36921755  0.66867727  0.99099193    -0.15700
F802        F  0.35011868  0.69633867  0.54209559    -0.13300
C803        C  0.45907286  0.81176649  0.60068326     0.24700
C804        C  0.45045955  0.80638667  0.62902178    -0.23400
C805        C  0.47203332  0.78651206  0.65608986     0.19600
C806        C  0.00258066  0.77493878  0.65296354     0.24600
C807        C  0.00784981  0.77363619  0.62256807    -0.23300
C808        C  0.48795714  0.79467094  0.59875024     0.19600
F809        F  0.49433537  0.79711851  0.57027828    -0.13300
F810        F  0.43816393  0.83034165  0.57389781    -0.15700
F811        F  0.02429548  0.75775475  0.67995092    -0.15700
F812        F  0.46408576  0.78049276  0.68345254    -0.13300
C813        C  0.24223612  0.70980578  0.60678958     0.24700
C814        C  0.25326249  0.74899096  0.61889465    -0.23400
C815        C  0.23547790  0.77173697  0.63482983     0.19600
C816        C  0.20666865  0.75653433  0.63754447     0.24600
C817        C  0.19442226  0.71815933  0.62398709    -0.23300
C818        C  0.21296746  0.69462387  0.60902453     0.19600
F819        F  0.20235818  0.65742435  0.59556354    -0.13300
F820        F  0.25879454  0.68726100  0.59122183    -0.15700
F821        F  0.19004463  0.78064827  0.65209390    -0.15700
F822        F  0.24587844  0.80939938  0.64756182    -0.13300
C823        C  0.25412456  0.87861450  0.96951205     0.24700
C824        C  0.22127106  0.87683670  0.96650363    -0.23400
C825        C  0.21090641  0.88345476  0.49351585     0.19600
C826        C  0.23512878  0.88575438  0.52439003     0.24600
C827        C  0.26806266  0.88541765  0.52720512    -0.23300
C828        C  0.27569795  0.88575628  0.49787724     0.19600
F829        F  0.30932506  0.88330756  0.00138516    -0.13300
F830        F  0.26322949  0.87720657  0.94254142    -0.15700
F831        F  0.22625974  0.88601294  0.55151470    -0.15700
F832        F  0.17959347  0.88199475  0.49227253    -0.13300
O833        O  0.79144268  0.87531508  0.09014281    -0.84200
O834        O  0.78117922  0.79810833  0.10349963    -0.81300
C835        C  0.78233430  0.76188983  0.11352756     0.99200
O836        O  0.80951448  0.74388373  0.12313762    -0.81300
O837        O  0.83851554  0.75974072  0.07319395    -0.84000
C838        C  0.85423595  0.77913827  0.05791641     1.03800
O839        O  0.87053222  0.81039441  0.06991130    -0.76700
O840        O  0.82432925  0.86518106  0.06239467    -0.76900
C841        C  0.79671579  0.87446144  0.06292888     1.03700
O842        O  0.83710114  0.88275376  0.15778895    -0.84200
O843        O  0.82510985  0.80196340  0.17181039    -0.81300
C844        C  0.85006326  0.77903838  0.18497684     0.99200
O845        O  0.86824423  0.76901870  0.16897402    -0.81300
O846        O  0.89893231  0.77353224  0.12284366    -0.83900
C847        C  0.91739464  0.80465206  0.12989039     1.03700
O848        O  0.90599439  0.84001051  0.13200808    -0.76800
O849        O  0.86023566  0.90299331  0.12277930    -0.76900
C850        C  0.85235132  0.90946598  0.14769386     1.03700
Cr851      Cr  0.81125157  0.83825710  0.13021292     1.93700
Cr852      Cr  0.85280608  0.76562066  0.12142048     1.93200
Cr853      Cr  0.86367658  0.85254984  0.09877542     1.39100
O854        O  0.84299017  0.81930146  0.11758174    -1.22000
O855        O  0.69934575  0.84792676  0.40951877    -0.84200
O856        O  0.69129185  0.78577984  0.36333497    -0.81300
C857        C  0.69553217  0.75218072  0.37895018     0.99200
O858        O  0.67697005  0.74226199  0.39468130    -0.81300
O859        O  0.62820675  0.75089926  0.42240122    -0.84000
C860        C  0.63620739  0.77215661  0.44785868     1.03800
O861        O  0.64547510  0.80873589  0.44759885    -0.76700
O862        O  0.66462013  0.88015010  0.42711030    -0.76900
C863        C  0.69329793  0.86860758  0.43160791     1.03700
O864        O  0.64784755  0.89414395  0.36218605    -0.84200
O865        O  0.63659527  0.82404027  0.32031563    -0.81300
C866        C  0.62840003  0.78686268  0.31220121     0.99200
O867        O  0.62999203  0.75938166  0.33328944    -0.81300
O868        O  0.58323173  0.77222870  0.36184697    -0.83900
C869        C  0.56841235  0.79032035  0.37854880     1.03700
O870        O  0.58312097  0.81585619  0.40011831    -0.76800
O871        O  0.60400942  0.88409170  0.37451205    -0.76900
C872        C  0.62101922  0.90721192  0.36347064     1.03700
Cr873      Cr  0.66665461  0.83674791  0.36534958     1.93700
Cr874      Cr  0.63066354  0.76070965  0.37863283     1.93200
Cr875      Cr  0.62543670  0.84472364  0.40993201     1.39100
O876        O  0.64043853  0.81399787  0.38417902    -1.22000
O877        O  0.90914846  0.63309426  0.44360806    -0.84200
O878        O  0.86092407  0.68675204  0.43381218    -0.81300
C879        C  0.87746690  0.71836394  0.44414556     0.99200
O880        O  0.89211481  0.73632850  0.42716552    -0.81300
O881        O  0.91958274  0.74762922  0.37628273    -0.84000
C882        C  0.94723218  0.73085757  0.38511200     1.03800
O883        O  0.95040116  0.69441354  0.39519872    -0.76700
O884        O  0.94080930  0.61879924  0.41511394    -0.76900
C885        C  0.93624543  0.62176433  0.44266236     1.03700
O886        O  0.87313593  0.58879319  0.38722206    -0.84200
O887        O  0.82575448  0.65016061  0.37439176    -0.81300
C888        C  0.81347638  0.68570628  0.37347893     0.99200
O889        O  0.83125680  0.71750811  0.37864004    -0.81300
O890        O  0.86113155  0.71850854  0.33215572    -0.83900
C891        C  0.87892873  0.70741636  0.31605319     1.03700
O892        O  0.90399942  0.68485626  0.32950820    -0.76800
O893        O  0.89287435  0.60603576  0.34890512    -0.76900
C894        C  0.87930780  0.58027668  0.36172101     1.03700
Cr895      Cr  0.86882801  0.64175213  0.40760381     1.93700
Cr896      Cr  0.87711840  0.72596405  0.37938715     1.93200
Cr897      Cr  0.91936220  0.65232149  0.37294770     1.39100
O898        O  0.88826404  0.67297820  0.38606966    -1.22000
O899        O  0.56382209  0.61313787  0.07477051    -0.84200
O900        O  0.58647927  0.68100084  0.05419525    -0.81300
C901        C  0.59500595  0.71770418  0.05316409     0.99200
O902        O  0.60174390  0.74039513  0.07783134    -0.81300
O903        O  0.55264781  0.75090686  0.10526871    -0.84000
C904        C  0.53455877  0.74232712  0.12181026     1.03800
O905        O  0.53892296  0.70956543  0.13825850    -0.76700
O906        O  0.52952689  0.64776058  0.09162186    -0.76900
C907        C  0.53550972  0.62701013  0.06950266     1.03700
O908        O  0.62399530  0.60679440  0.12914696    -0.84200
O909        O  0.64762866  0.67337422  0.10354461    -0.81300
C910        C  0.66134246  0.70140214  0.12333135     0.99200
O911        O  0.64610052  0.72092165  0.13885358    -0.81300
O912        O  0.59972452  0.73483536  0.16716915    -0.83100
C913        C  0.60117914  0.70781184  0.18861212     1.03700
O914        O  0.59258766  0.67057393  0.18092778    -0.76800
O915        O  0.57893352  0.59990722  0.13948640    -0.76900
C916        C  0.60584874  0.58533463  0.13997659     1.03700
Cr917      Cr  0.60440937  0.64613869  0.09284065     1.93700
Cr918      Cr  0.59893449  0.73223721  0.12172304     1.93200
Cr919      Cr  0.56217741  0.65797176  0.13601790     1.39100
O920        O  0.58911096  0.67888810  0.11728020    -1.22000
O921        O  0.82271847  0.13375774  0.06561770    -0.84200
O922        O  0.87239489  0.18496822  0.07739226    -0.81300
C923        C  0.85648662  0.21676008  0.06535406     0.99200
O924        O  0.83934061  0.23459798  0.07989264    -0.81300
O925        O  0.80733607  0.24767012  0.12785331    -0.84000
C926        C  0.78002741  0.23030962  0.12007560     1.03800
O927        O  0.77766525  0.19343236  0.11141542    -0.76700
O928        O  0.78983003  0.11876858  0.09263777    -0.76900
C929        C  0.79504156  0.12393482  0.06555082     1.03700
O930        O  0.85592266  0.08743315  0.12255525    -0.84200
O931        O  0.90373218  0.14819912  0.13770477    -0.81300
C932        C  0.91590319  0.18377179  0.13902879     0.99200
O933        O  0.89795146  0.21580429  0.13247203    -0.81300
O934        O  0.86469681  0.21956088  0.17509979    -0.83900
C935        C  0.84679306  0.20765370  0.19078035     1.03700
O936        O  0.82265098  0.18423371  0.17745140    -0.76800
O937        O  0.83613579  0.10572620  0.16033761    -0.76900
C938        C  0.84995422  0.07942639  0.14829954     1.03700
Cr939      Cr  0.86187778  0.14060941  0.10281264     1.93700
Cr940      Cr  0.85117431  0.22543152  0.12794800     1.93200
Cr941      Cr  0.80929642  0.15173308  0.13475046     1.39100
O942        O  0.84089569  0.17240630  0.12245419    -1.22000
O943        O  0.66160029  0.11348272  0.43245900    -0.84200
O944        O  0.63625875  0.18106198  0.45099135    -0.81300
C945        C  0.62590609  0.21726308  0.45061070     0.99200
O946        O  0.61866979  0.23914757  0.42524569    -0.81300
O947        O  0.66797400  0.25129355  0.39709826    -0.84000
C948        C  0.68633160  0.24221187  0.38079865     1.03800
O949        O  0.68261426  0.20855161  0.36581019    -0.76700
O950        O  0.69377447  0.14705454  0.41215390    -0.76900
C951        C  0.68951911  0.12711674  0.43557690     1.03700
O952        O  0.60098592  0.10395929  0.37870803    -0.84200
O953        O  0.57521432  0.17013542  0.40169069    -0.81300
C954        C  0.56012519  0.19652180  0.38044568     0.99200
O955        O  0.57499727  0.21688126  0.36487638    -0.81300
O956        O  0.62126095  0.23276123  0.33647313    -0.83900
C957        C  0.62054175  0.20605417  0.31534763     1.03700
O958        O  0.62941316  0.16881043  0.32344318    -0.76800
O959        O  0.64482375  0.09808590  0.36588515    -0.76900
C960        C  0.61876025  0.08294435  0.36715663     1.03700
Cr961      Cr  0.61961833  0.14474985  0.41343774     1.93700
Cr962      Cr  0.62200419  0.23037483  0.38171136     1.93200
Cr963      Cr  0.66031566  0.15664025  0.36844005     1.39100
O964        O  0.63353623  0.17731961  0.38758538    -1.22000
O965        O  0.93293556  0.36688728  0.41816178    -0.84200
O966        O  0.94078439  0.28983870  0.39911690    -0.81300
C967        C  0.93707634  0.25450197  0.38713928     0.99200
O968        O  0.90883296  0.23971432  0.37687524    -0.81300
O969        O  0.88027496  0.25159456  0.42705795    -0.84000
C970        C  0.86503697  0.26949334  0.44338558     1.03800
O971        O  0.85006163  0.30288554  0.43402799    -0.76700
O972        O  0.90005979  0.35397557  0.44552636    -0.76900
C973        C  0.92761263  0.36403445  0.44533394     1.03700
O974        O  0.88734457  0.38211575  0.35148872    -0.84200
O975        O  0.89672798  0.30284925  0.33262353    -0.81300
C976        C  0.87082914  0.28284141  0.31820480     0.99200
O977        O  0.85140038  0.27432000  0.33304508    -0.81300
O978        O  0.82052929  0.27523276  0.37830145    -0.83900
C979        C  0.80356447  0.30808143  0.37360609     1.03700
O980        O  0.81682695  0.34296099  0.37525509    -0.76800
O981        O  0.86646476  0.40111038  0.38857521    -0.76900
C982        C  0.87427187  0.40905912  0.36374918     1.03700
Cr983      Cr  0.91177033  0.33435823  0.37601312     1.93700
Cr984      Cr  0.86645335  0.26401597  0.37977364     1.93200
Cr985      Cr  0.85996809  0.34818716  0.40877887     1.39100
O986        O  0.87914744  0.31601469  0.38762195    -1.22000
O987        O  0.52587108  0.35008117  0.09558469    -0.84200
O988        O  0.53491225  0.28939609  0.14305836    -0.81300
C989        C  0.53067715  0.25503869  0.12913493     0.99200
O990        O  0.54844700  0.24432748  0.11271277    -0.81300
O991        O  0.59600443  0.25269702  0.08296246    -0.84000
C992        C  0.58911950  0.27452429  0.05765115     1.03800
O993        O  0.58069832  0.31163998  0.05755271    -0.76700
O994        O  0.56000245  0.38227483  0.07723807    -0.76900
C995        C  0.53160101  0.36993395  0.07282980     1.03700
O996        O  0.57679407  0.39661307  0.14200487    -0.84200
O997        O  0.58941228  0.32642362  0.18494183    -0.81300
C998        C  0.59795110  0.28908253  0.19323981     0.99200
O999        O  0.59673125  0.26190885  0.17233993    -0.81300
O1000       O  0.64237645  0.27308852  0.14231422    -0.83900
C1001       C  0.65727048  0.29187706  0.12595459     1.03700
O1002       O  0.64272148  0.31884686  0.10512313    -0.76800
O1003       O  0.62080163  0.38732353  0.12995942    -0.76900
C1004       C  0.60360342  0.40989635  0.14121047     1.03700
Cr1005     Cr  0.55894300  0.33942474  0.13978127     1.93700
Cr1006     Cr  0.59479662  0.26278119  0.12686414     1.93200
Cr1007     Cr  0.59993209  0.34746821  0.09498091     1.39100
O1008       O  0.58509345  0.31640559  0.12096684    -1.22000
C1009       C  0.97265157  0.37828967  0.03656570     0.24700
C1010       C  0.50586108  0.37694425  0.04032469    -0.23400
C1011       C  0.51395634  0.38088214  0.01144485     0.19600
C1012       C  0.98499837  0.38314748  0.48114318     0.24600
C1013       C  0.95337562  0.37074363  0.47805370    -0.23300
C1014       C  0.94862334  0.38030911  0.00578512     0.19600
F1015       F  0.91737613  0.38082435  0.00482288    -0.13300
F1016       F  0.96358974  0.37668678  0.06356221    -0.15700
F1017       F  0.49408407  0.38960731  0.45376440    -0.15700
F1018       F  0.54073387  0.39265037  0.51285143    -0.13300
C1019       C  0.63005268  0.24081414  0.23645810     0.24700
C1020       C  0.60673150  0.27289434  0.22682094    -0.23400
C1021       C  0.58616143  0.27953955  0.24504437     0.19600
C1022       C  0.58870137  0.25456972  0.27217909     0.24600
C1023       C  0.61208642  0.22260709  0.28188576    -0.23300
C1024       C  0.63266519  0.21592959  0.26366308     0.19600
F1025       F  0.65626716  0.18667690  0.27302610    -0.13300
F1026       F  0.64992903  0.23298186  0.21887533    -0.15700
F1027       F  0.56851929  0.26200704  0.28949098    -0.15700
F1028       F  0.56250858  0.30870940  0.23562963    -0.13300
C1029       C  0.60568274  0.20496431  0.49669816     0.24700
C1030       C  0.61750168  0.23258717  0.47824725    -0.23400
C1031       C  0.61552372  0.27531557  0.48258022     0.19600
C1032       C  0.58255173  0.27658268  0.99902492     0.24600
C1033       C  0.59634830  0.25828068  0.02971899    -0.23300
C1034       C  0.62166906  0.22927610  0.03496639     0.19600
F1035       F  0.63643716  0.21203022  0.06477496    -0.13300
F1036       F  0.60537895  0.16356624  0.49162307    -0.15700
F1037       F  0.55776887  0.30403097  0.99321449    -0.15700
F1038       F  0.62654605  0.30263357  0.46490805    -0.13300
C1039       C  0.71984470  0.26603037  0.34759836     0.24700
C1040       C  0.71185908  0.26982944  0.37651852    -0.23400
C1041       C  0.73122307  0.29514486  0.40142549     0.19600
C1042       C  0.75973498  0.31246297  0.39872762     0.24600
C1043       C  0.76930237  0.30423036  0.37131621    -0.23300
C1044       C  0.74843593  0.28237729  0.34534942     0.19600
F1045       F  0.75692341  0.27428121  0.31861530    -0.13300
F1046       F  0.70091447  0.24397912  0.32198336    -0.15700
F1047       F  0.77956516  0.33381358  0.42423295    -0.15700
F1048       F  0.72421462  0.30010329  0.42936556    -0.13300
C1049       C  0.97724309  0.19554655  0.39228296     0.24700
C1050       C  0.96530347  0.23500973  0.38073566    -0.23400
C1051       C  0.98244344  0.25883262  0.36472165     0.19600
C1052       C  0.51142214  0.24373643  0.36124572     0.24600
C1053       C  0.52539884  0.20632875  0.37620527    -0.23300
C1054       C  0.00724623  0.18185706  0.39042880     0.19600
F1055       F  0.01863759  0.14424414  0.40313812    -0.13300
F1056       F  0.96087863  0.17127666  0.40699185    -0.15700
F1057       F  0.52710752  0.26839968  0.34604952    -0.15700
F1058       F  0.97088328  0.29637337  0.35188544    -0.13300
C1059       C  0.83155459  0.22002784  0.24124402     0.24700
C1060       C  0.85361881  0.22463488  0.22427403    -0.23400
C1061       C  0.88122950  0.24943621  0.23836109     0.19600
C1062       C  0.88626064  0.26942429  0.26808618     0.24600
C1063       C  0.86408429  0.26514557  0.28494068    -0.23300
C1064       C  0.83661724  0.23997873  0.27103383     0.19600
F1065       F  0.81443800  0.23407674  0.28627522    -0.13300
F1066       F  0.80470914  0.19664281  0.22892263    -0.15700
F1067       F  0.91316759  0.29268401  0.28040637    -0.15700
F1068       F  0.90370729  0.25475861  0.22341424    -0.13300
C1069       C  0.87292186  0.20590135  0.01640045     0.24700
C1070       C  0.86102254  0.23272436  0.03557054    -0.23400
C1071       C  0.85733919  0.27476080  0.02788209     0.19600
C1072       C  0.89119896  0.25562755  0.50111076     0.24600
C1073       C  0.86350374  0.25360793  0.47376425    -0.23300
C1074       C  0.83285360  0.25015581  0.47727127     0.19600
F1075       F  0.80576333  0.24927611  0.45069414    -0.13300
F1076       F  0.87724487  0.16485048  0.02327943    -0.15700
F1077       F  0.92070085  0.26092166  0.49785615    -0.15700
F1078       F  0.84726869  0.30157183  0.04651431    -0.13300
C1079       C  0.49698698  0.23446544  0.16310829     0.24700
C1080       C  0.50544155  0.22825575  0.13467067    -0.23400
C1081       C  0.98689583  0.19837996  0.11036594     0.19600
C1082       C  0.95957856  0.17955489  0.11441462     0.24600
C1083       C  0.94992186  0.18908330  0.14149887    -0.23300
C1084       C  0.96955984  0.21421646  0.16596017     0.19600
F1085       F  0.96080623  0.22374328  0.19230259    -0.13300
F1086       F  0.51458408  0.25971740  0.18720455    -0.15700
F1087       F  0.94067120  0.15541498  0.09025849    -0.15700
F1088       F  0.99389244  0.19174277  0.08260985    -0.13300
C1089       C  0.73905384  0.28877530  0.11151724     0.24700
C1090       C  0.75109708  0.25006210  0.12478132    -0.23400
C1091       C  0.73404867  0.22781647  0.14185293     0.19600
C1092       C  0.70480389  0.24266242  0.14410831     0.24600
C1093       C  0.69130163  0.28009539  0.12888930    -0.23300
C1094       C  0.70933912  0.30352405  0.11325539     0.19600
F1095       F  0.69785819  0.34027384  0.09877098    -0.13300
F1096       F  0.75510271  0.31128774  0.09538103    -0.15700
F1097       F  0.68903053  0.21911187  0.15994019    -0.15700
F1098       F  0.74559974  0.19095082  0.15614911    -0.13300
C1099       C  0.77628157  0.13099619  0.00399764     0.24700
C1100       C  0.76903329  0.12096382  0.03271625    -0.23400
C1101       C  0.73656584  0.11289673  0.02932898     0.19600
C1102       C  0.71226184  0.11535575  0.99852739     0.24600
C1103       C  0.71683592  0.12190288  0.46738527    -0.23300
C1104       C  0.74882814  0.13066217  0.46930986     0.19600
F1105       F  0.75625556  0.13805061  0.44181725    -0.13300
F1106       F  0.80368316  0.14240834  0.49929779    -0.15700
F1107       F  0.68123061  0.10873497  0.99689126    -0.15700
F1108       F  0.72799368  0.10418219  0.05594520    -0.13300
C1109       C  0.59591224  0.51992906  0.16614556     0.24700
C1110       C  0.61349174  0.54123954  0.14920332    -0.23400
C1111       C  0.63380579  0.51833713  0.13630408     0.19600
C1112       C  0.63317075  0.47500552  0.13651094     0.24600
C1113       C  0.61219829  0.45381107  0.14966674    -0.23300
C1114       C  0.59525293  0.47675727  0.16633956     0.19600
F1115       F  0.57622621  0.45756898  0.18110089    -0.13300
F1116       F  0.57757770  0.54086225  0.18075184    -0.15700
F1117       F  0.65081361  0.45416444  0.12111885    -0.15700
F1118       F  0.65201931  0.53762748  0.12068882    -0.13300
C1119       C  0.89803359  0.51451550  0.34483201     0.24700
C1120       C  0.87289516  0.53805640  0.34934432    -0.23400
C1121       C  0.84485861  0.51823112  0.35050411     0.19600
C1122       C  0.84378011  0.47523928  0.35163892     0.24600
C1123       C  0.87061415  0.45168499  0.35129700    -0.23300
C1124       C  0.89687400  0.47138000  0.34574610     0.19600
F1125       F  0.92323374  0.44927461  0.34566197    -0.13300
F1126       F  0.92553887  0.53302446  0.34415630    -0.15700
F1127       F  0.81770515  0.45672936  0.35590251    -0.15700
F1128       F  0.81982624  0.54059445  0.35375506    -0.13300
C1129       C  0.95394727  0.61496451  0.00238466     0.24700
C1130       C  0.96244666  0.61443941  0.47511913    -0.23400
C1131       C  0.99547683  0.61280691  0.47835384     0.19600
C1132       C  0.51833904  0.62005769  0.00782284     0.24600
C1133       C  0.51012265  0.62054483  0.03676420    -0.23300
C1134       C  0.97786561  0.61635168  0.03329059     0.19600
F1135       F  0.96889874  0.61341586  0.06028902    -0.13300
F1136       F  0.92285238  0.60990305  0.00109694    -0.15700
F1137       F  0.55054870  0.60732877  0.51192803    -0.15700
F1138       F  0.50379628  0.60646109  0.45252531    -0.13300
C1139       C  0.62523669  0.01828361  0.33804410     0.24700
C1140       C  0.61134421  0.03884257  0.35871028    -0.23400
C1141       C  0.59459822  0.01535759  0.37531349     0.19600
C1142       C  0.59504121  0.97214979  0.37429845     0.24600
C1143       C  0.61219787  0.95148669  0.35660567    -0.23300
C1144       C  0.62564264  0.97501769  0.33699310     0.19600
F1145       F  0.64070086  0.95612240  0.31809395    -0.13300
F1146       F  0.63986695  0.04000344  0.32006576    -0.15700
F1147       F  0.58146884  0.95074560  0.39339390    -0.15700
F1148       F  0.58049956  0.03385857  0.39522334    -0.13300
C1149       C  0.63561503  0.75279058  0.23236968     0.24700
C1150       C  0.61046526  0.72360583  0.22216060    -0.23400
C1151       C  0.58957948  0.71888145  0.24031971     0.19600
C1152       C  0.59378494  0.74272764  0.26815982     0.24600
C1153       C  0.61901871  0.77173747  0.27847698    -0.23300
C1154       C  0.63989761  0.77654095  0.26030406     0.19600
F1155       F  0.66537874  0.80260984  0.27048362    -0.13300
F1156       F  0.65594067  0.75850000  0.21494939    -0.15700
F1157       F  0.57339058  0.73712457  0.28551562    -0.15700
F1158       F  0.56415140  0.69273387  0.23022098    -0.13300
C1159       C  0.64155493  0.77659313  0.50627755     0.24700
C1160       C  0.62937302  0.75628504  0.47636544    -0.23400
C1161       C  0.60590007  0.72528300  0.47230841     0.19600
C1162       C  0.61393199  0.70492937  0.00643069     0.24600
C1163       C  0.60211155  0.73272952  0.02465808    -0.23300
C1164       C  0.60336214  0.77540196  0.01945618     0.19600
F1165       F  0.59176882  0.80285357  0.03647009    -0.13300
F1166       F  0.66465396  0.80597294  0.51117066    -0.15700
F1167       F  0.61424182  0.66350697  0.01177952    -0.15700
F1168       F  0.59302107  0.70532698  0.44355876    -0.13300
C1169       C  0.75595416  0.70470374  0.34457351     0.24700
C1170       C  0.77988906  0.69089128  0.37288690    -0.23400
C1171       C  0.77351260  0.69090643  0.40264921     0.19600
C1172       C  0.74468104  0.70784254  0.40454894     0.24600
C1173       C  0.72187932  0.72490375  0.37665983    -0.23300
C1174       C  0.72703026  0.72120006  0.34637071     0.19600
F1175       F  0.70464036  0.73564664  0.31867527    -0.13300
F1176       F  0.76141823  0.70462578  0.31558403    -0.15700
F1177       F  0.74050007  0.71109308  0.43403264    -0.15700
F1178       F  0.79638780  0.67770509  0.43043688    -0.13300
C1179       C  0.98746671  0.78883708  0.39366582     0.24700
C1180       C  0.97556560  0.75068692  0.37997694    -0.23400
C1181       C  0.99248519  0.72883203  0.36269275     0.19600
C1182       C  0.52129875  0.74155788  0.36126957     0.24600
C1183       C  0.53442581  0.77927490  0.37538643    -0.23300
C1184       C  0.01706072  0.80351531  0.39205668     0.19600
F1185       F  0.52762317  0.84047550  0.40389117    -0.13300
F1186       F  0.97150623  0.81061842  0.41027481    -0.15700
F1187       F  0.53772722  0.71670281  0.34701334    -0.15700
F1188       F  0.98099854  0.69232864  0.34832224    -0.13300
C1189       C  0.88499217  0.97327413  0.15951689     0.24700
C1190       C  0.85867636  0.95082682  0.16238636    -0.23400
C1191       C  0.83447792  0.97180345  0.17091036     0.19600
C1192       C  0.83371608  0.01510968  0.17072356     0.24600
C1193       C  0.85713776  0.03739147  0.16202450    -0.23300
C1194       C  0.88411756  0.01631030  0.15910079     0.19600
F1195       F  0.90801260  0.03728803  0.15244624    -0.13300
F1196       F  0.90980971  0.95358428  0.15342502    -0.15700
F1197       F  0.80786915  0.03484798  0.17460788    -0.15700
F1198       F  0.80931778  0.95081740  0.17496130    -0.13300
C1199       C  0.83865577  0.77089719  0.23828931     0.24700
C1200       C  0.85755810  0.76117073  0.21871589    -0.23400
C1201       C  0.88318780  0.73227660  0.23122673     0.19600
C1202       C  0.88973086  0.71418566  0.26223942     0.24600
C1203       C  0.87090327  0.72406995  0.28187514    -0.23300
C1204       C  0.84514156  0.75275692  0.26924014     0.19600
F1205       F  0.82615819  0.76412566  0.28695748    -0.13300
F1206       F  0.81376729  0.79823796  0.22766597    -0.15700
F1207       F  0.91476011  0.68707033  0.27298606    -0.15700
F1208       F  0.90213150  0.72097872  0.21344790    -0.13300
C1209       C  0.86463974  0.79388477  0.00647340     0.24700
C1210       C  0.85772712  0.76474020  0.02761556    -0.23400
C1211       C  0.86097240  0.72260753  0.02283469     0.19600
C1212       C  0.87060312  0.70666942  0.49763554     0.24600
C1213       C  0.87596612  0.73452576  0.47481268    -0.23300
C1214       C  0.87339085  0.77695789  0.47884045     0.19600
F1215       F  0.87765367  0.80432208  0.45681820    -0.13300
F1216       F  0.86257480  0.83511376  0.01113082    -0.15700
F1217       F  0.87305980  0.66523520  0.49430795    -0.15700
F1218       F  0.85619143  0.69407522  0.04380100    -0.13300
C1219       C  0.95514962  0.79775530  0.09820175     0.24700
C1220       C  0.95042482  0.79989006  0.12876841    -0.23400
C1221       C  0.97607865  0.79016368  0.15696042     0.19600
C1222       C  0.50469724  0.77578779  0.15474349     0.24600
C1223       C  0.50842890  0.76971837  0.12398949    -0.23300
C1224       C  0.98426047  0.78293027  0.09566691     0.19600
F1225       F  0.98687850  0.77694041  0.06574014    -0.13300
F1226       F  0.93077230  0.80710637  0.07044244    -0.15700
F1227       F  0.52864635  0.76458133  0.18244427    -0.15700
F1228       F  0.97205281  0.79164538  0.18660240    -0.13300
C1229       C  0.74644283  0.70164082  0.11742950     0.24700
C1230       C  0.75248077  0.74432778  0.11764508    -0.23400
C1231       C  0.72954028  0.77180311  0.12287177     0.19600
C1232       C  0.70111062  0.75730521  0.12673646     0.24600
C1233       C  0.69426565  0.71488333  0.12509328    -0.23300
C1234       C  0.71731980  0.68707779  0.12058811     0.19600
F1235       F  0.71152992  0.64585341  0.11901306    -0.13300
F1236       F  0.76810813  0.67417988  0.11308632    -0.15700
F1237       F  0.67933568  0.78534545  0.13018378    -0.15700
F1238       F  0.73451938  0.81326549  0.12437885    -0.13300
C1239       C  0.75186009  0.87684854  0.46623685     0.24700
C1240       C  0.71908613  0.87785031  0.46348212    -0.23400
C1241       C  0.71347267  0.87865318  0.99663195     0.19600
C1242       C  0.73757524  0.87990488  0.02752525     0.24600
C1243       C  0.77050273  0.88130254  0.03050498    -0.23300
C1244       C  0.77827856  0.88289992  0.00124743     0.19600
F1245       F  0.80716638  0.87911277  0.49742243    -0.13300
F1246       F  0.76073295  0.87216169  0.43932248    -0.15700
F1247       F  0.72857700  0.87732722  0.05451430    -0.15700
F1248       F  0.68223907  0.87563182  0.99537412    -0.13300
O1249       O  0.78974771  0.87843552  0.58587411    -0.84200
O1250       O  0.78046727  0.80201332  0.60405975    -0.81300
C1251       C  0.78337426  0.76594164  0.61485829     0.99200
O1252       O  0.81099864  0.74901663  0.62376707    -0.81300
O1253       O  0.83997078  0.76141521  0.57348958    -0.84000
C1254       C  0.85520678  0.77980963  0.55722065     1.03800
O1255       O  0.87057257  0.81224545  0.56760794    -0.76700
O1256       O  0.82177653  0.86483388  0.55770826    -0.76900
C1257       C  0.79454436  0.87573816  0.55845784     1.03700
O1258       O  0.83645117  0.89041908  0.65239293    -0.84200
O1259       O  0.82544975  0.81087815  0.67076404    -0.81300
C1260       C  0.85054934  0.78848606  0.68451819     0.99200
O1261       O  0.86888984  0.77806068  0.66879186    -0.81300
O1262       O  0.89969043  0.78071531  0.62287186    -0.83900
C1263       C  0.91718245  0.81278718  0.62786651     1.03700
O1264       O  0.90473844  0.84818105  0.62728953    -0.76800
O1265       O  0.85664071  0.90903457  0.61469047    -0.76900
C1266       C  0.84949451  0.91707510  0.63977107     1.03700
Cr1267     Cr  0.81070356  0.84414596  0.62758634     1.93700
Cr1268     Cr  0.85374038  0.77134258  0.62138255     1.93200
Cr1269     Cr  0.86183355  0.85646009  0.59397356     1.39100
O1270       O  0.84236964  0.82435791  0.61496091    -1.22000
O1271       O  0.70125801  0.85142657  0.91239165    -0.84200
O1272       O  0.69125573  0.79050088  0.86552983    -0.81300
C1273       C  0.69574397  0.75682357  0.88090362     0.99200
O1274       O  0.67783778  0.74704822  0.89743448    -0.81300
O1275       O  0.62846388  0.75634362  0.92518838    -0.84000
C1276       C  0.63618236  0.77786105  0.95050216     1.03800
O1277       O  0.64579299  0.81420212  0.95033006    -0.76700
O1278       O  0.66730473  0.88405212  0.93094711    -0.76900
C1279       C  0.69566457  0.87118675  0.93517141     1.03700
O1280       O  0.65085847  0.89949783  0.86586368    -0.84200
O1281       O  0.63683475  0.82956387  0.82318092    -0.81300
C1282       C  0.62850428  0.79231236  0.81503490     0.99200
O1283       O  0.63097717  0.76484038  0.83632678    -0.81300
O1284       O  0.58453260  0.77876614  0.86449387    -0.83900
C1285       C  0.56936438  0.79744029  0.88053030     1.03700
O1286       O  0.58373903  0.82342509  0.90197168    -0.76800
O1287       O  0.60680457  0.89196563  0.87807443    -0.76900
C1288       C  0.62450635  0.91405694  0.86709072     1.03700
Cr1289     Cr  0.66789552  0.84163496  0.86823076     1.93700
Cr1290     Cr  0.63158478  0.76631623  0.88159324     1.93200
Cr1291     Cr  0.62694174  0.85087822  0.91291400     1.39100
O1292       O  0.64163914  0.81958937  0.88720106    -1.22000
O1293       O  0.90861254  0.64042518  0.94304233    -0.84200
O1294       O  0.85966765  0.69351320  0.93282552    -0.81300
C1295       C  0.87709009  0.72408272  0.94395868     0.99200
O1296       O  0.89191711  0.74215249  0.92723366    -0.81300
O1297       O  0.91944104  0.75405891  0.87645633    -0.84000
C1298       C  0.94670299  0.73626826  0.88441597     1.03800
O1299       O  0.94917229  0.69949515  0.89374100    -0.76700
O1300       O  0.93885751  0.62422571  0.91342056    -0.76900
C1301       C  0.93515224  0.62791045  0.94134899     1.03700
O1302       O  0.87267758  0.59504129  0.88746291    -0.84200
O1303       O  0.82519463  0.65653513  0.87401985    -0.81300
C1304       C  0.81292105  0.69213392  0.87284919     0.99200
O1305       O  0.83060990  0.72412551  0.87799925    -0.81300
O1306       O  0.86051113  0.72717621  0.83173117    -0.83900
C1307       C  0.87786735  0.71551640  0.81532538     1.03700
O1308       O  0.90217097  0.69147523  0.82827219    -0.76800
O1309       O  0.88986714  0.61221803  0.84743923    -0.76900
C1310       C  0.87727668  0.58628280  0.86120688     1.03700
Cr1311     Cr  0.86808576  0.64844437  0.90717680     1.93700
Cr1312     Cr  0.87664211  0.73284980  0.87920357     1.93200
Cr1313     Cr  0.91743420  0.65819039  0.87142536     1.39100
O1314       O  0.88712955  0.67953754  0.88519926    -1.22000
O1315       O  0.56645105  0.61658177  0.57594291    -0.84200
O1316       O  0.58798286  0.68598772  0.55586649    -0.81300
C1317       C  0.59740878  0.72234713  0.55512170     0.99200
O1318       O  0.60371728  0.74494554  0.57973670    -0.81300
O1319       O  0.55337715  0.75477477  0.60623411    -0.84000
C1320       C  0.53501719  0.74523447  0.62236494     1.03800
O1321       O  0.53974134  0.71210964  0.63847874    -0.76700
O1322       O  0.53206913  0.64928479  0.59376920    -0.76900
C1323       C  0.53791762  0.62896099  0.57139035     1.03700
O1324       O  0.62644070  0.61078065  0.62991941    -0.84200
O1325       O  0.64915821  0.67867882  0.60529361    -0.81300
C1326       C  0.66301973  0.70614000  0.62556728     0.99200
O1327       O  0.64750858  0.72577271  0.64085844    -0.81300
O1328       O  0.59983738  0.74006704  0.66808763    -0.83100
C1329       C  0.60158807  0.71386634  0.69009155     1.03700
O1330       O  0.59414569  0.67607696  0.68303992    -0.76800
O1331       O  0.58250987  0.60358612  0.64242298    -0.76900
C1332       C  0.60880559  0.58889113  0.64111414     1.03700
Cr1333     Cr  0.60635565  0.65068768  0.59420882     1.93700
Cr1334     Cr  0.60002775  0.73661892  0.62315489     1.93200
Cr1335     Cr  0.56441461  0.66130712  0.63794247     1.39100
O1336       O  0.59086091  0.68288021  0.61891888    -1.22000
O1337       O  0.82005001  0.14909145  0.56051887    -0.84200
O1338       O  0.87127289  0.19968494  0.57402398    -0.81300
C1339       C  0.85634773  0.23322707  0.56554369     0.99200
O1340       O  0.84110801  0.24989795  0.58234439    -0.81300
O1341       O  0.81187773  0.25799969  0.63146969    -0.84000
C1342       C  0.78358469  0.24372574  0.61964605     1.03800
O1343       O  0.77969231  0.20751521  0.60925513    -0.76700
O1344       O  0.78922303  0.13110598  0.58903405    -0.76900
C1345       C  0.79344710  0.13579879  0.56144576     1.03700
O1346       O  0.85356918  0.09876289  0.61523638    -0.84200
O1347       O  0.90335413  0.15615825  0.63138982    -0.81300
C1348       C  0.91707806  0.19085365  0.63486888     0.99200
O1349       O  0.90057227  0.22401669  0.63111118    -0.81300
O1350       O  0.86924503  0.22312310  0.67581422    -0.83900
C1351       C  0.84972808  0.21406799  0.69041129     1.03700
O1352       O  0.82404766  0.19388603  0.67554027    -0.76800
O1353       O  0.83570419  0.11548158  0.65498487    -0.76900
C1354       C  0.84781844  0.08942664  0.64093372     1.03700
Cr1355     Cr  0.86050292  0.15292319  0.59732702     1.93700
Cr1356     Cr  0.85455741  0.23502158  0.62924235     1.93200
Cr1357     Cr  0.80978724  0.16324347  0.63156502     1.39100
O1358       O  0.84176303  0.18339984  0.61982973    -1.22000
O1359       O  0.66546233  0.11979028  0.93346525    -0.84200
O1360       O  0.64091009  0.18837798  0.95237655    -0.81300
C1361       C  0.62848729  0.22353170  0.95159606     0.99200
O1362       O  0.61925559  0.24430115  0.92569622    -0.81300
O1363       O  0.66895409  0.25925793  0.90071158    -0.84000
C1364       C  0.68961518  0.25130571  0.88700733     1.03800
O1365       O  0.68748818  0.21907499  0.87037725    -0.76700
O1366       O  0.69827037  0.15593042  0.91591408    -0.76900
C1367       C  0.69334180  0.13413488  0.93812935     1.03700
O1368       O  0.60587144  0.11128132  0.88004172    -0.84200
O1369       O  0.57982265  0.17657407  0.90399649    -0.81300
C1370       C  0.56405008  0.20131296  0.88181158     0.99200
O1371       O  0.57812631  0.22001241  0.86464977    -0.81300
O1372       O  0.62547329  0.24044908  0.83825643    -0.83900
C1373       C  0.62634894  0.21410599  0.81738975     1.03700
O1374       O  0.63602951  0.17726967  0.82586503    -0.76800
O1375       O  0.65038463  0.10653703  0.86805129    -0.76900
C1376       C  0.62428715  0.09068876  0.86897057     1.03700
Cr1377     Cr  0.62405161  0.15156279  0.91507253     1.93700
Cr1378     Cr  0.62422226  0.23669687  0.88289692     1.93200
Cr1379     Cr  0.66575227  0.16555464  0.87141962     1.39100
O1380       O  0.63756782  0.18456405  0.88934058    -1.22000
O1381       O  0.93568186  0.37483294  0.91698291    -0.84200
O1382       O  0.94604340  0.29905527  0.89900817    -0.81300
C1383       C  0.94358341  0.26252317  0.88958625     0.99200
O1384       O  0.91621888  0.24564310  0.88094748    -0.81300
O1385       O  0.88993536  0.25897968  0.93251771    -0.84000
C1386       C  0.87537559  0.27748756  0.94933764     1.03800
O1387       O  0.85765211  0.30825897  0.93788244    -0.76700
O1388       O  0.90299879  0.36386331  0.94495677    -0.76900
C1389       C  0.93045698  0.37342077  0.94422008     1.03700
O1390       O  0.88836880  0.38804908  0.85079791    -0.84200
O1391       O  0.89925288  0.30809959  0.83314703    -0.81300
C1392       C  0.87477424  0.28485301  0.82026879     0.99200
O1393       O  0.85726861  0.27322185  0.83667330    -0.81300
O1394       O  0.82817038  0.27450509  0.88470694    -0.83900
C1395       C  0.80925987  0.30549694  0.87921526     1.03700
O1396       O  0.82005106  0.34106054  0.87672638    -0.76800
O1397       O  0.86537146  0.40477243  0.88662106    -0.76900
C1398       C  0.87359469  0.41387266  0.86230801     1.03700
Cr1399     Cr  0.91458758  0.34112804  0.87572320     1.93700
Cr1400     Cr  0.87381001  0.26731403  0.88429373     1.93200
Cr1401     Cr  0.86309022  0.35241880  0.90931791     1.39100
O1402       O  0.88356537  0.32080374  0.88906566    -1.22000
O1403       O  0.52641302  0.34958717  0.59649762    -0.84200
O1404       O  0.53939908  0.28902803  0.64419297    -0.81300
C1405       C  0.53508858  0.25537248  0.62914645     0.99200
O1406       O  0.55278397  0.24566367  0.61237569    -0.81300
O1407       O  0.59784274  0.25668968  0.57981075    -0.84000
C1408       C  0.58692989  0.27790650  0.55413827     1.03800
O1409       O  0.57690149  0.31410367  0.55477214    -0.76700
O1410       O  0.55772376  0.38431822  0.57636513    -0.76900
C1411       C  0.53017168  0.36975392  0.57292264     1.03700
O1412       O  0.57844255  0.39866542  0.64097696    -0.84200
O1413       O  0.59388738  0.32864675  0.68393882    -0.81300
C1414       C  0.60315710  0.29156900  0.69224932     0.99200
O1415       O  0.60243127  0.26460821  0.67123114    -0.81300
O1416       O  0.64567709  0.27951306  0.63835321    -0.83900
C1417       C  0.65807909  0.29827805  0.61973773     1.03700
O1418       O  0.64111703  0.32300082  0.59821546    -0.76800
O1419       O  0.62058520  0.39060728  0.62529511    -0.76900
C1420       C  0.60441073  0.41262744  0.63818165     1.03700
Cr1421     Cr  0.56158814  0.34054032  0.63969100     1.93700
Cr1422     Cr  0.59853730  0.26604798  0.62488751     1.93200
Cr1423     Cr  0.59831685  0.35048619  0.59121573     1.39100
O1424       O  0.58681631  0.31896481  0.61921201    -1.22000
C1425       C  0.97098406  0.36270799  0.53786272     0.24700
C1426       C  0.50341841  0.37401412  0.54064013    -0.23400
C1427       C  0.51018527  0.38352752  0.51164415     0.19600
C1428       C  0.98950255  0.38133578  0.97964344     0.24600
C1429       C  0.95652153  0.38032213  0.97658846    -0.23300
C1430       C  0.94672679  0.36167807  0.50724771     0.19600
F1431       F  0.91670736  0.35039280  0.50647836    -0.13300
F1432       F  0.96320020  0.35185286  0.56457074    -0.15700
F1433       F  0.49918728  0.38162615  0.95351305    -0.15700
F1434       F  0.54535425  0.38227675  0.01302685    -0.13300
C1435       C  0.63455408  0.24317895  0.73627855     0.24700
C1436       C  0.61182494  0.27583351  0.72605902    -0.23400
C1437       C  0.59228518  0.28523203  0.74492386     0.19600
C1438       C  0.59541422  0.26263111  0.77335537     0.24600
C1439       C  0.61832643  0.23021028  0.78372861    -0.23300
C1440       C  0.63776136  0.22063430  0.76479958     0.19600
F1441       F  0.66073173  0.19063747  0.77454236    -0.13300
F1442       F  0.65349638  0.23274143  0.71826952    -0.15700
F1443       F  0.57592903  0.27250569  0.79093840    -0.15700
F1444       F  0.56892290  0.31472242  0.73493433    -0.13300
C1445       C  0.63327854  0.21927282  0.00990435     0.24700
C1446       C  0.61978957  0.23803348  0.97927679    -0.23400
C1447       C  0.59427955  0.26684168  0.97401330     0.19600
C1448       C  0.60256214  0.29028153  0.50548000     0.24600
C1449       C  0.59177184  0.26265010  0.52468279    -0.23300
C1450       C  0.59293480  0.21996330  0.51981307     0.19600
F1451       F  0.58211245  0.19281935  0.53777742    -0.13300
F1452       F  0.65794391  0.19159156  0.01578790    -0.15700
F1453       F  0.60259499  0.33172136  0.51029416    -0.15700
F1454       F  0.57987810  0.28488003  0.94444117    -0.13300
C1455       C  0.71851454  0.30121226  0.86272584     0.24700
C1456       C  0.71743870  0.27798536  0.88991044    -0.23400
C1457       C  0.74620795  0.26913160  0.91496811     0.19600
C1458       C  0.77578232  0.27934430  0.91151837     0.24600
C1459       C  0.77725801  0.30005887  0.88336652    -0.23300
C1460       C  0.74831722  0.31292612  0.85975705     0.19600
F1461       F  0.74889500  0.33360471  0.83270377    -0.13300
F1462       F  0.69082207  0.30969208  0.83795922    -0.15700
F1463       F  0.80308111  0.26694019  0.93520728    -0.15700
F1464       F  0.74579401  0.24668530  0.94133783    -0.13300
C1465       C  0.98388526  0.20371360  0.89747657     0.24700
C1466       C  0.97223339  0.24280820  0.88473819    -0.23400
C1467       C  0.98930082  0.26537613  0.86799467     0.19600
C1468       C  0.51577937  0.24854496  0.86295181     0.24600
C1469       C  0.52998442  0.21184090  0.87892131    -0.23300
C1470       C  0.01330291  0.18869828  0.89525866     0.19600
F1471       F  0.02474270  0.15172540  0.90936372    -0.13300
F1472       F  0.96785108  0.18121504  0.91365366    -0.15700
F1473       F  0.53085036  0.27186603  0.84629001    -0.15700
F1474       F  0.97827229  0.30290428  0.85472305    -0.13300
C1475       C  0.83717665  0.22065580  0.74318164     0.24700
C1476       C  0.85642314  0.23097125  0.72408310    -0.23400
C1477       C  0.88128119  0.26036593  0.73665692     0.19600
C1478       C  0.88667655  0.27854134  0.76720564     0.24600
C1479       C  0.86750390  0.26812603  0.78641835    -0.23300
C1480       C  0.84255022  0.23890294  0.77377418     0.19600
F1481       F  0.82326501  0.22726489  0.79110092    -0.13300
F1482       F  0.81313813  0.19263008  0.73242670    -0.15700
F1483       F  0.91089180  0.30637895  0.77786409    -0.15700
F1484       F  0.90043713  0.27240772  0.71926336    -0.13300
C1485       C  0.82995971  0.24860821  0.50810219     0.24700
C1486       C  0.85768209  0.25048729  0.53547441    -0.23400
C1487       C  0.88829152  0.25440003  0.53194018     0.19600
C1488       C  0.86467960  0.28970273  0.00114172     0.24600
C1489       C  0.87517332  0.26259710  0.98113723    -0.23300
C1490       C  0.88000396  0.22080844  0.98948795     0.19600
F1491       F  0.89005349  0.19398111  0.97083990    -0.13300
F1492       F  0.80048667  0.24279287  0.51130396    -0.15700
F1493       F  0.86075936  0.33080992  0.99442025    -0.15700
F1494       F  0.91537543  0.25551752  0.55850332    -0.13300
C1495       C  0.50167296  0.23034153  0.66208580     0.24700
C1496       C  0.50909395  0.22853544  0.63279644    -0.23400
C1497       C  0.98881021  0.20453656  0.60697322     0.19600
C1498       C  0.96002792  0.18790745  0.60916680     0.24600
C1499       C  0.95126509  0.19414204  0.63725689    -0.23300
C1500       C  0.97311163  0.21314579  0.66431322     0.19600
F1501       F  0.96538578  0.21895345  0.69179122    -0.13300
F1502       F  0.52180590  0.24950840  0.68872349    -0.15700
F1503       F  0.93911595  0.16955134  0.58261384    -0.15700
F1504       F  0.99498757  0.20207660  0.57841868    -0.13300
C1505       C  0.73125443  0.28031668  0.59234688     0.24700
C1506       C  0.75470677  0.26648628  0.62110263    -0.23400
C1507       C  0.74699116  0.26561728  0.65010281     0.19600
C1508       C  0.71590664  0.27665389  0.65005360     0.24600
C1509       C  0.69203829  0.28962994  0.62106178    -0.23300
C1510       C  0.70043536  0.29225679  0.59233231     0.19600
F1511       F  0.67813499  0.30370308  0.56357301    -0.13300
F1512       F  0.73773947  0.28038113  0.56387271    -0.15700
F1513       F  0.70897623  0.27369732  0.67821236    -0.15700
F1514       F  0.76898032  0.25143964  0.67813890    -0.13300
C1515       C  0.77360790  0.13298916  0.49952582     0.24700
C1516       C  0.76741699  0.12701843  0.52930628    -0.23400
C1517       C  0.73582549  0.11561974  0.52733535     0.19600
C1518       C  0.71097018  0.11293923  0.49688945     0.24600
C1519       C  0.71959670  0.12657273  0.97016779    -0.23300
C1520       C  0.75205221  0.13395349  0.97351324     0.19600
F1521       F  0.76054560  0.14498530  0.94725778    -0.13300
F1522       F  0.80689781  0.13979506  0.00519358    -0.15700
F1523       F  0.68074685  0.10352998  0.49658934    -0.15700
F1524       F  0.72855218  0.10841592  0.55491184    -0.13300
C1525       C  0.60116058  0.52217931  0.66749521     0.24700
C1526       C  0.61614717  0.54418251  0.64838285    -0.23400
C1527       C  0.63305355  0.52166399  0.63141009     0.19600
C1528       C  0.63172905  0.47837486  0.63046220     0.24600
C1529       C  0.61335851  0.45661277  0.64640751    -0.23300
C1530       C  0.59972980  0.47891787  0.66646357     0.19600
F1531       F  0.58352667  0.45902882  0.68387994    -0.13300
F1532       F  0.58630849  0.54266617  0.68583593    -0.15700
F1533       F  0.64599724  0.45823259  0.61143665    -0.15700
F1534       F  0.64828758  0.54146397  0.61301952    -0.13300
C1535       C  0.89256095  0.52073734  0.83962363     0.24700
C1536       C  0.86990934  0.54377881  0.84904023    -0.23400
C1537       C  0.84388892  0.52323421  0.85437524     0.19600
C1538       C  0.84298470  0.48018615  0.85478128     0.24600
C1539       C  0.86810550  0.45686640  0.84984084    -0.23300
C1540       C  0.89166214  0.47740236  0.83998917     0.19600
F1541       F  0.91606561  0.45586629  0.83468056    -0.13300
F1542       F  0.91782058  0.53981545  0.83414602    -0.15700
F1543       F  0.81909152  0.46135729  0.86299988    -0.15700
F1544       F  0.82090603  0.54484345  0.86226463    -0.13300
C1545       C  0.95449207  0.61463571  0.50427700     0.24700
C1546       C  0.96169013  0.61966406  0.97330619    -0.23400
C1547       C  0.99459349  0.62249335  0.97639423     0.19600
C1548       C  0.51939277  0.61294249  0.51039274     0.24600
C1549       C  0.51188231  0.62134225  0.53913348    -0.23300
C1550       C  0.97835336  0.61725825  0.53506726     0.19600
F1551       F  0.96911067  0.61953427  0.56191845    -0.13300
F1552       F  0.92327137  0.61334395  0.50323740    -0.15700
F1553       F  0.54971252  0.62210750  0.00942185    -0.15700
F1554       F  0.50342796  0.62298735  0.94984792    -0.13300
C1555       C  0.63471361  0.02460311  0.84379385     0.24700
C1556       C  0.61747777  0.04628255  0.86082811    -0.23400
C1557       C  0.59719242  0.02373182  0.87408066     0.19600
C1558       C  0.59707097  0.98042891  0.87352420     0.24600
C1559       C  0.61711067  0.95868017  0.85957707    -0.23300
C1560       C  0.63441991  0.98136699  0.84305368     0.19600
F1561       F  0.65262397  0.96168948  0.82763959    -0.13300
F1562       F  0.65325567  0.04510459  0.82918739    -0.15700
F1563       F  0.57945466  0.96000212  0.88920938    -0.15700
F1564       F  0.57950298  0.04322563  0.89014269    -0.13300
C1565       C  0.63064394  0.76628728  0.73128485     0.24700
C1566       C  0.61021744  0.73129628  0.72336972    -0.23400
C1567       C  0.59342526  0.71990548  0.74443907     0.19600
C1568       C  0.59727017  0.74248623  0.77288200     0.24600
C1569       C  0.61826634  0.77686565  0.78113342    -0.23300
C1570       C  0.63454912  0.78877860  0.75976882     0.19600
F1571       F  0.65548833  0.82086594  0.76720547    -0.13300
F1572       F  0.64700451  0.77883349  0.71126759    -0.15700
F1573       F  0.58068042  0.73032004  0.79279770    -0.15700
F1574       F  0.57233338  0.68798653  0.73692467    -0.13300
C1575       C  0.61666427  0.79019322  0.99672650     0.24700
C1576       C  0.62862809  0.76244770  0.97862470    -0.23400
C1577       C  0.62711797  0.71974761  0.98357104     0.19600
C1578       C  0.59419066  0.71571521  0.49743982     0.24600
C1579       C  0.60587003  0.73661107  0.52711485    -0.23300
C1580       C  0.62984538  0.76699076  0.53143390     0.19600
F1581       F  0.64286138  0.78662215  0.56031340    -0.13300
F1582       F  0.61634260  0.83160920  0.99136333    -0.15700
F1583       F  0.57122232  0.68617046  0.49257423    -0.15700
F1584       F  0.63848323  0.69236587  0.96631455    -0.13300
C1585       C  0.75708751  0.71692994  0.84489475     0.24700
C1586       C  0.77922340  0.69712099  0.87161411    -0.23400
C1587       C  0.77118257  0.69055209  0.90013658     0.19600
C1588       C  0.74247522  0.70701012  0.90283765     0.24600
C1589       C  0.72147883  0.72978341  0.87686152    -0.23300
C1590       C  0.72815484  0.73227088  0.84718145     0.19600
F1591       F  0.70749359  0.75206918  0.82084012    -0.13300
F1592       F  0.76445381  0.72384571  0.81730718    -0.15700
F1593       F  0.73679549  0.70400731  0.93164082    -0.15700
F1594       F  0.79255613  0.67165659  0.92644821    -0.13300
C1595       C  0.98582060  0.79552725  0.88964180     0.24700
C1596       C  0.97550940  0.75535962  0.87950180    -0.23400
C1597       C  0.99413748  0.73113073  0.86540602     0.19600
C1598       C  0.52342087  0.74728972  0.86347852     0.24600
C1599       C  0.53533939  0.78592696  0.87665152    -0.23300
C1600       C  0.01559678  0.80984768  0.88810323     0.19600
F1601       F  0.52586008  0.84860394  0.90178034    -0.13300
F1602       F  0.96804690  0.81997636  0.90262741    -0.15700
F1603       F  0.54082600  0.72238829  0.85034252    -0.15700
F1604       F  0.98418990  0.69278688  0.85396056    -0.13300
C1605       C  0.88096196  0.98193577  0.65090752     0.24700
C1606       C  0.85383267  0.95967752  0.65179718    -0.23400
C1607       C  0.82768237  0.98088453  0.65647036     0.19600
C1608       C  0.82721500  0.02409680  0.65664506     0.24600
C1609       C  0.85288367  0.04631719  0.65216049    -0.23300
C1610       C  0.88045846  0.02501913  0.65100787     0.19600
F1611       F  0.90576242  0.04597679  0.64718562    -0.13300
F1612       F  0.90678263  0.96198823  0.64708128    -0.15700
F1613       F  0.79995309  0.04402139  0.65678699    -0.15700
F1614       F  0.80083059  0.96013098  0.65644022    -0.13300
C1615       C  0.83802950  0.77960169  0.73740751     0.24700
C1616       C  0.85796598  0.77128569  0.71855925    -0.23400
C1617       C  0.88434217  0.74366189  0.73184318     0.19600
C1618       C  0.89034587  0.72500136  0.76258977     0.24600
C1619       C  0.87032770  0.73306549  0.78136759    -0.23300
C1620       C  0.84407047  0.76096215  0.76821792     0.19600
F1621       F  0.82405011  0.77082202  0.78520181    -0.13300
F1622       F  0.81244858  0.80580265  0.72610997    -0.15700
F1623       F  0.91617185  0.69923014  0.77401160    -0.15700
F1624       F  0.90459700  0.73410826  0.71505911    -0.13300
C1625       C  0.86464681  0.79138526  0.50480985     0.24700
C1626       C  0.85868402  0.76350248  0.52733599    -0.23400
C1627       C  0.86200392  0.72108587  0.52370091     0.19600
C1628       C  0.87052597  0.70968071  0.99701566     0.24600
C1629       C  0.87633185  0.73875581  0.97523388    -0.23300
C1630       C  0.87401561  0.78091390  0.98051099     0.19600
F1631       F  0.87915872  0.80939578  0.95970931    -0.13300
F1632       F  0.86213746  0.83284787  0.50800387    -0.15700
F1633       F  0.87330496  0.66847345  0.99273667    -0.15700
F1634       F  0.85817904  0.69373262  0.54594039    -0.13300
C1635       C  0.95719577  0.81062672  0.59841375     0.24700
C1636       C  0.95064540  0.80800066  0.62808413    -0.23400
C1637       C  0.97401443  0.79131224  0.65551284     0.19600
C1638       C  0.50097554  0.77021912  0.65447468     0.24600
C1639       C  0.50849417  0.77208737  0.62520719    -0.23300
C1640       C  0.98566715  0.79346686  0.59563599     0.19600
F1641       F  0.98998416  0.79280290  0.56611249    -0.13300
F1642       F  0.93471125  0.82641781  0.57137402    -0.15700
F1643       F  0.52092284  0.75038974  0.68121547    -0.15700
F1644       F  0.96814242  0.78813628  0.68422049    -0.13300
C1645       C  0.74516692  0.70659047  0.61273526     0.24700
C1646       C  0.75505415  0.74731265  0.62114940    -0.23400
C1647       C  0.73674005  0.77219784  0.63521065     0.19600
C1648       C  0.70817747  0.75769931  0.63899399     0.24600
C1649       C  0.69678187  0.71791831  0.62842549    -0.23300
C1650       C  0.71618019  0.69207486  0.61609183     0.19600
F1651       F  0.70662582  0.65309122  0.60628889    -0.13300
F1652       F  0.76251347  0.68168555  0.59957918    -0.15700
F1653       F  0.69077153  0.78378061  0.65122798    -0.15700
F1654       F  0.74631217  0.81125399  0.64493196    -0.13300
C1655       C  0.75422870  0.88051539  0.97044642     0.24700
C1656       C  0.72145702  0.87782131  0.96759068    -0.23400
C1657       C  0.71127257  0.88457020  0.49225151     0.19600
C1658       C  0.73555328  0.88644674  0.52307896     0.24600
C1659       C  0.76839539  0.88264887  0.52601245    -0.23300
C1660       C  0.77602953  0.87999119  0.49674763     0.19600
F1661       F  0.80944419  0.88561095  0.00221472    -0.13300
F1662       F  0.76316548  0.88051033  0.94335169    -0.15700
F1663       F  0.72670984  0.89016614  0.55007713    -0.15700
F1664       F  0.67996337  0.88707982  0.49092189    -0.13300
loop_ 
_geom_bond_atom_site_label_1 
_geom_bond_atom_site_label_2 
_geom_bond_distance 
_geom_bond_site_symmetry_2 
_ccdc_geom_bond_type 
O1          Cr19   2.052       .  S
O1            C9   1.279       .  A
O2          Cr19   1.950       .  S
O2            C3   1.243       .  A
C3            O4   1.263       .  A
C3          C398   1.490       .  S
O4          Cr20   2.047       .  S
O5          Cr20   1.991       .  S
O5            C6   1.269       .  A
C6            O7   1.254       .  A
C6          C378   1.456       .  S
O7          Cr21   1.948       .  S
O8          Cr21   1.960       .  S
O8            C9   1.254       .  A
C9          C411   1.515       .  S
O10         Cr19   1.985       .  S
O10          C18   1.257       .  A
O11         Cr19   2.069       .  S
O11          C12   1.286       .  A
C12          O13   1.261       .  A
C12         C368   1.507       .  S
O13         Cr20   1.957       .  S
O14         Cr20   2.019       .  S
O14          C15   1.269       .  A
C15          O16   1.263       .  A
C15         C388   1.473       .  S
O16         Cr21   1.981       .  S
O17         Cr21   1.974       .  S
O17          C18   1.258       .  A
C18         C358   1.475       .  S
Cr19         O22   1.766       .  S
Cr20         O22   1.781       .  S
Cr21         O22   1.772       .  S
O23         Cr41   2.022       .  S
O23          C31   1.271       .  A
O24         Cr41   1.984       .  S
O24          C25   1.259       .  A
C25          O26   1.265       .  A
C25         C341   1.483       .  S
O26         Cr42   2.007       .  S
O27         Cr42   1.972       .  S
O27          C28   1.257       .  A
C28          O29   1.252       .  A
C28         C328   1.447       .  S
O29         Cr43   1.951       .  S
O30         Cr43   2.003       .  S
O30          C31   1.263       .  A
C31         C408   1.506       .  S
O32         Cr41   2.017       .  S
O32          C40   1.267       .  A
O33         Cr41   2.019       .  S
O33          C34   1.277       .  A
C34          O35   1.260       .  A
C34         C321   1.480       .  S
O35         Cr42   1.968       .  S
O36         Cr42   1.994       .  S
O36          C37   1.265       .  A
C37          O38   1.263       .  A
C37         C351   1.496       .  S
O38         Cr43   2.001       .  S
O39         Cr43   1.972       .  S
O39          C40   1.257       .  A
C40         C311   1.486       .  S
Cr41         O44   1.774       .  S
Cr42         O44   1.779       .  S
Cr43         O44   1.780       .  S
O45         Cr63   1.956       .  S
O45          C53   1.256       .  A
O46         Cr63   1.948       .  S
O46          C47   1.252       .  A
C47          O48   1.267       .  A
C47         C381   1.457       .  S
O48         Cr64   1.995       .  S
O49         Cr64   2.046       .  S
O49          C50   1.266       .  A
C50          O51   1.245       .  A
C50         C348   1.483       .  S
O51         Cr65   1.948       .  S
O52         Cr65   2.066       .  S
O52          C53   1.282       .  A
C53         C298   1.519       .  S
O54         Cr63   1.972       .  S
O54          C62   1.257       .  A
O55         Cr63   1.981       .  S
O55          C56   1.264       .  A
C56          O57   1.271       .  A
C56         C338   1.475       .  S
O57         Cr64   2.024       .  S
O58         Cr64   1.954       .  S
O58          C59   1.259       .  A
C59          O60   1.286       .  A
C59         C371   1.508       .  S
O60         Cr65   2.071       .  S
O61         Cr65   1.980       .  S
O61          C62   1.256       .  A
C62         C288   1.465       .  S
Cr63         O66   1.772       .  S
Cr64         O66   1.776       .  S
Cr65         O66   1.770       .  S
O67         Cr85   2.008       .  S
O67          C75   1.266       .  A
O68         Cr85   1.953       .  S
O68          C69   1.252       .  A
C69          O70   1.258       .  A
C69         C331   1.460       .  S
O70         Cr86   1.975       .  S
O71         Cr86   2.008       .  S
O71          C72   1.265       .  A
C72          O73   1.254       .  A
C72         C391   1.474       .  S
O73         Cr87   1.970       .  S
O74         Cr87   2.021       .  S
O74          C75   1.271       .  A
C75         C301   1.507       .  S
O76         Cr85   1.982       .  S
O76          C84   1.259       .  A
O77         Cr85   2.004       .  S
O77          C78   1.264       .  A
C78          O79   1.264       .  A
C78         C401   1.487       .  S
O79         Cr86   1.985       .  S
O80         Cr86   1.972       .  S
O80          C81   1.261       .  A
C81          O82   1.279       .  A
C81         C318   1.481       .  S
O82         Cr87   2.020       .  S
O83         Cr87   2.003       .  S
O83          C84   1.263       .  A
C84         C278   1.489       .  S
Cr85         O88   1.784       .  S
Cr86         O88   1.779       .  S
Cr87         O88   1.775       .  S
O89        Cr107   1.951       .  S
O89          C97   1.256       .  A
O90        Cr107   1.954       .  S
O90          C91   1.252       .  A
C91          O92   1.269       .  A
C91         C238   1.463       .  S
O92        Cr108   1.998       .  S
O93        Cr108   2.049       .  S
O93          C94   1.267       .  A
C94          O95   1.248       .  A
C94         C258   1.493       .  S
O95        Cr109   1.954       .  S
O96        Cr109   2.055       .  S
O96          C97   1.281       .  A
C97         C268   1.510       .  S
O98        Cr107   1.977       .  S
O98         C106   1.256       .  A
O99        Cr107   1.976       .  S
O99         C100   1.265       .  A
C100        O101   1.272       .  A
C100        C251   1.470       .  S
O101       Cr108   2.019       .  S
O102       Cr108   1.944       .  S
O102        C103   1.257       .  A
C103        O104   1.281       .  A
C103        C228   1.494       .  S
O104       Cr109   2.052       .  S
O105       Cr109   1.985       .  S
O105        C106   1.255       .  A
C106        C361   1.473       .  S
Cr107       O110   1.775       .  S
Cr108       O110   1.773       .  S
Cr109       O110   1.771       .  S
O111       Cr129   2.016       .  S
O111        C119   1.268       .  A
O112       Cr129   1.958       .  S
O112        C113   1.254       .  A
C113        O114   1.256       .  A
C113        C198   1.462       .  S
O114       Cr130   1.965       .  S
O115       Cr130   2.026       .  S
O115        C116   1.269       .  A
C116        O117   1.256       .  A
C116        C208   1.493       .  S
O117       Cr131   1.970       .  S
O118       Cr131   2.005       .  S
O118        C119   1.267       .  A
C119        C271   1.509       .  S
O120       Cr129   1.980       .  S
O120        C128   1.258       .  A
O121       Cr129   2.014       .  S
O121        C122   1.266       .  A
C122        O123   1.268       .  A
C122        C221   1.506       .  S
O123       Cr130   2.001       .  S
O124       Cr130   1.958       .  S
O124        C125   1.258       .  A
C125        O126   1.276       .  A
C125        C191   1.474       .  S
O126       Cr131   2.014       .  S
O127       Cr131   2.006       .  S
O127        C128   1.263       .  A
C128        C308   1.487       .  S
Cr129       O132   1.786       .  S
Cr130       O132   1.781       .  S
Cr131       O132   1.779       .  S
O133       Cr151   2.058       .  S
O133        C141   1.280       .  A
O134       Cr151   1.958       .  S
O134        C135   1.249       .  A
C135        O136   1.267       .  A
C135        C218   1.492       .  S
O136       Cr152   2.054       .  S
O137       Cr152   1.982       .  S
O137        C138   1.265       .  A
C138        O139   1.256       .  A
C138        C241   1.436       .  S
O139       Cr153   1.959       .  S
O140       Cr153   1.960       .  S
O140        C141   1.256       .  A
C141        C181   1.515       .  S
O142       Cr151   1.973       .  S
O142        C150   1.255       .  A
O143       Cr151   2.058       .  S
O143        C144   1.283       .  A
C144        O145   1.257       .  A
C144        C231   1.495       .  S
O145       Cr152   1.946       .  S
O146       Cr152   2.025       .  S
O146        C147   1.271       .  A
C147        O148   1.264       .  A
C147        C211   1.479       .  S
O148       Cr153   1.982       .  S
O149       Cr153   1.983       .  S
O149        C150   1.260       .  A
C150        C291   1.467       .  S
Cr151       O154   1.771       .  S
Cr152       O154   1.775       .  S
Cr153       O154   1.775       .  S
O155       Cr173   2.017       .  S
O155        C163   1.270       .  A
O156       Cr173   1.968       .  S
O156        C157   1.255       .  A
C157        O158   1.266       .  A
C157        C248   1.489       .  S
O158       Cr174   2.015       .  S
O159       Cr174   1.958       .  S
O159        C160   1.254       .  A
C160        O161   1.255       .  A
C160        C201   1.453       .  S
O161       Cr175   1.957       .  S
O162       Cr175   2.005       .  S
O162        C163   1.264       .  A
C163        C178   1.505       .  S
O164       Cr173   2.004       .  S
O164        C172   1.265       .  A
O165       Cr173   2.018       .  S
O165        C166   1.277       .  A
C166        O167   1.257       .  A
C166        C188   1.474       .  S
O167       Cr174   1.953       .  S
O168       Cr174   2.001       .  S
O168        C169   1.267       .  A
C169        O170   1.263       .  A
C169        C261   1.502       .  S
O170       Cr175   2.003       .  S
O171       Cr175   1.984       .  S
O171        C172   1.258       .  A
C172        C281   1.490       .  S
Cr173       O176   1.777       .  S
Cr174       O176   1.783       .  S
Cr175       O176   1.785       .  S
C177        C182   1.405       .  A
C177       C1010   1.404       .  A
C177        F184   1.358       .  S
C178        C179   1.417       .  A
C178       C1009   1.404   1_455  A
C179       C1428   1.412   1_454  A
C179        F602   1.357       .  S
C180        C181   1.409       .  A
C180       C1427   1.414       .  A
C180       F1017   1.357       .  S
C181        C598   1.422       .  A
C182        C597   1.422   1_554  A
C182        F183   1.357       .  S
F185       C1012   1.357       .  S
F186        C595   1.357       .  S
C187        C188   1.415       .  A
C187        C192   1.400       .  A
C187        F194   1.359       .  S
C188        C189   1.399       .  A
C189        C190   1.399       .  A
C189        F196   1.358       .  S
C190        C191   1.414       .  A
C190        F195   1.359       .  S
C191        C192   1.400       .  A
C192        F193   1.358       .  S
C197        C198   1.407       .  A
C197        C618   1.389       .  A
C197        F204   1.358       .  S
C198        C199   1.407       .  A
C199        C616   1.387       .  A
C199        F206   1.358       .  S
C200        C201   1.398   1_556  A
C200        C615   1.385       .  A
C200        F205   1.358       .  S
C201        C202   1.410       .  A
C202        C613   1.385       .  A
C202        F203   1.359       .  S
C207        C208   1.417       .  A
C207        C212   1.396       .  A
C207        F214   1.358       .  S
C208        C209   1.406       .  A
C209        C210   1.412       .  A
C209        F216   1.357       .  S
C210        C211   1.413       .  A
C210        F215   1.358       .  S
C211        C212   1.396       .  A
C212        F213   1.358       .  S
C217        C218   1.404       .  A
C217        C222   1.413       .  A
C217        F224   1.357       .  S
C218        C219   1.409       .  A
C219       C1052   1.401       .  A
C219        F226   1.358       .  S
C220        C221   1.409       .  A
C220       C1051   1.401   1_455  A
C220        F225   1.358       .  S
C221       C1054   1.419       .  A
C222       C1053   1.419       .  A
C222        F223   1.357       .  S
C227        C228   1.404       .  A
C227        C232   1.402       .  A
C227        F234   1.358       .  S
C228        C229   1.418       .  A
C229        C230   1.400       .  A
C229        F236   1.358       .  S
C230        C231   1.404       .  A
C230        F235   1.358       .  S
C231        C232   1.419       .  A
C232        F233   1.358       .  S
C237        C238   1.417       .  A
C237        C658   1.389   1_554  A
C237        F244   1.359       .  S
C238        C239   1.395       .  A
C239        C656   1.388   1_554  A
C239        F246   1.358       .  S
C240        C241   1.395       .  A
C240        C655   1.388       .  A
C240        F245   1.358       .  S
C241        C242   1.406       .  A
C242        C653   1.388       .  A
C242        F243   1.359       .  S
C247        C248   1.417   1_655  A
C247       C1084   1.395       .  A
C247        F254   1.358   1_655  S
C248       C1081   1.405   1_455  A
C249        C250   1.407       .  A
C249       C1080   1.404       .  A
C249        F256   1.357       .  S
C250        C251   1.411       .  A
C250        F255   1.358       .  S
C251        C252   1.396       .  A
C252       C1079   1.394       .  A
C252        F253   1.358       .  S
C257        C258   1.403       .  A
C257        C262   1.412       .  A
C257        F264   1.357       .  S
C258        C259   1.412       .  A
C259        C260   1.401       .  A
C259        F266   1.359       .  S
C260        C261   1.408       .  A
C260        F265   1.358       .  S
C261        C262   1.419       .  A
C262        F263   1.357       .  S
C267        C268   1.422       .  A
C267        C688   1.405   1_554  A
C267        F690   1.358       .  S
C268        C269   1.408       .  A
C269        C270   1.412   1_554  A
C269        F276   1.357       .  S
C270        C687   1.418       .  A
C270        F275   1.357       .  S
C271        C272   1.407       .  A
C271        C686   1.417       .  A
C272        C683   1.405       .  A
C272        F273   1.358       .  S
F274        C683   1.358       .  S
C277        C278   1.409       .  A
C277        C282   1.398       .  A
C277        F284   1.358       .  S
C278        C279   1.409       .  A
C279        C280   1.403       .  A
C279        F286   1.358       .  S
C280        C281   1.411       .  A
C280        F285   1.357       .  S
C281        C282   1.409       .  A
C282        F283   1.358       .  S
C287        C288   1.404       .  A
C287        C292   1.398       .  A
C287        F294   1.358       .  S
C288        C289   1.405       .  A
C289        C290   1.393       .  A
C289        F296   1.359       .  S
C290        C291   1.404       .  A
C290        F295   1.358       .  S
C291        C292   1.406       .  A
C292        F293   1.358       .  S
C297        C302   1.407       .  A
C297        C714   1.421   1_554  A
C297        F304   1.357       .  S
C298        C299   1.411       .  A
C298        C713   1.422       .  A
C299       C1548   1.418       .  A
C299       F1138   1.357       .  S
C300        C301   1.418       .  A
C300       C1547   1.414   1_454  A
C300        F721   1.356       .  S
C301       C1134   1.404   1_455  A
C302       C1133   1.404       .  A
C302        F303   1.358       .  S
F305        C716   1.357       .  S
F306       C1131   1.357   1_455  S
C307        C308   1.409       .  A
C307        C312   1.402   1_545  A
C307        F314   1.358       .  S
C308        C309   1.408       .  A
C309        C310   1.400   1_545  A
C309        F316   1.358       .  S
C310        C311   1.410       .  A
C310        F315   1.358       .  S
C311        C312   1.407       .  A
C312        F313   1.358       .  S
C317        C318   1.415       .  A
C317        C322   1.402       .  A
C317        F324   1.358       .  S
C318        C319   1.401       .  A
C319        C320   1.403       .  A
C319        F326   1.358       .  S
C320        C321   1.414       .  A
C320        F325   1.358       .  S
C321        C322   1.400       .  A
C322        F323   1.358       .  S
C327        C328   1.406       .  A
C327        C748   1.386       .  A
C327        F334   1.359       .  S
C328        C329   1.400       .  A
C329        C746   1.387       .  A
C329        F336   1.358       .  S
C330        C331   1.409       .  A
C330        C745   1.390   1_554  A
C330        F335   1.358       .  S
C331        C332   1.402       .  A
C332        C743   1.387   1_554  A
C332        F333   1.358       .  S
C337        C338   1.398       .  A
C337        C342   1.399       .  A
C337        F344   1.358       .  S
C338        C339   1.412       .  A
C339        C340   1.405       .  A
C339        F346   1.357       .  S
C340        C341   1.402       .  A
C340        F345   1.357       .  S
C341        C342   1.413       .  A
C342        F343   1.358       .  S
C347        C348   1.400       .  A
C347        C352   1.408       .  A
C347        F354   1.357       .  S
C348        C349   1.410       .  A
C349       C1182   1.399       .  A
C349        F356   1.359       .  S
C350        C351   1.408       .  A
C350       C1181   1.399   1_455  A
C350        F355   1.358       .  S
C351       C1184   1.418       .  A
C352       C1183   1.419       .  A
C352       F1185   1.357       .  S
F353       C1184   1.357       .  S
C357        C358   1.406       .  A
C357        C362   1.393   1_565  A
C357        F364   1.359       .  S
C358        C359   1.407       .  A
C359        C360   1.402   1_565  A
C359        F366   1.357       .  S
C360        C361   1.406       .  A
C360        F365   1.357       .  S
C361        C362   1.405       .  A
C362        F363   1.359       .  S
C367        C368   1.405       .  A
C367        C372   1.406       .  A
C367        F374   1.358       .  S
C368        C369   1.421       .  A
C369        C370   1.407       .  A
C369        F376   1.358       .  S
C370        C371   1.405       .  A
C370        F375   1.358       .  S
C371        C372   1.422       .  A
C372        F373   1.358       .  S
C377        C378   1.415       .  A
C377        C798   1.389   1_554  A
C377        F384   1.358       .  S
C378        C379   1.394       .  A
C379        C796   1.386   1_554  A
C379        F386   1.358       .  S
C380        C381   1.415       .  A
C380        C795   1.386       .  A
C380        F385   1.358       .  S
C381        C382   1.395       .  A
C382        C793   1.389       .  A
C382        F383   1.358       .  S
C387        C388   1.412       .  A
C387        C392   1.399       .  A
C387        F394   1.355       .  S
C388        C389   1.398       .  A
C389       C1222   1.400       .  A
C389        F396   1.358       .  S
C390        C391   1.414       .  A
C390       C1221   1.399   1_455  A
C390        F395   1.358       .  S
C391       C1224   1.398   1_455  A
C392       C1223   1.398       .  A
C392        F393   1.358       .  S
C397        C398   1.407       .  A
C397        C402   1.410       .  A
C397        F404   1.357       .  S
C398        C399   1.413       .  A
C399        C400   1.394       .  A
C399        F406   1.359       .  S
C400        C401   1.404       .  A
C400        F405   1.359       .  S
C401        C402   1.412       .  A
C402        F403   1.357       .  S
C407        C408   1.403       .  A
C407        C828   1.405       .  A
C407        F414   1.357       .  S
C408        C825   1.419       .  A
C409        C410   1.412   1_556  A
C409        C824   1.418       .  A
C409        F416   1.357       .  S
C410        C411   1.408       .  A
C410        F415   1.357       .  S
C411        C412   1.422       .  A
C412        C823   1.410   1_554  A
C412        F829   1.357       .  S
F413        C828   1.357       .  S
O417       Cr435   2.061       .  S
O417        C425   1.281       .  A
O418       Cr435   1.951       .  S
O418        C419   1.247       .  A
C419        O420   1.265       .  A
C419        C814   1.485       .  S
O420       Cr436   2.042       .  S
O421       Cr436   1.993       .  S
O421        C422   1.267       .  A
C422        O423   1.253       .  A
C422        C794   1.455       .  S
O423       Cr437   1.951       .  S
O424       Cr437   1.954       .  S
O424        C425   1.255       .  A
C425        C827   1.512       .  S
O426       Cr435   1.979       .  S
O426        C434   1.255       .  A
O427       Cr435   2.065       .  S
O427        C428   1.284       .  A
C428        O429   1.261       .  A
C428        C784   1.509       .  S
O429       Cr436   1.960       .  S
O430       Cr436   2.021       .  S
O430        C431   1.271       .  A
C431        O432   1.264       .  A
C431        C804   1.473       .  S
O432       Cr437   1.978       .  S
O433       Cr437   1.975       .  S
O433        C434   1.257       .  A
C434        C774   1.468       .  S
Cr435       O438   1.771       .  S
Cr436       O438   1.777       .  S
Cr437       O438   1.777       .  S
O439       Cr457   2.027       .  S
O439        C447   1.272       .  A
O440       Cr457   1.966       .  S
O440        C441   1.255       .  A
C441        O442   1.267       .  A
C441        C757   1.483       .  S
O442       Cr458   2.012       .  S
O443       Cr458   1.979       .  S
O443        C444   1.257       .  A
C444        O445   1.252       .  A
C444        C744   1.458       .  S
O445       Cr459   1.955       .  S
O446       Cr459   2.003       .  S
O446        C447   1.264       .  A
C447        C824   1.509       .  S
O448       Cr457   2.001       .  S
O448        C456   1.264       .  A
O449       Cr457   2.026       .  S
O449        C450   1.279       .  A
C450        O451   1.259       .  A
C450        C737   1.486       .  S
O451       Cr458   1.965       .  S
O452       Cr458   1.989       .  S
O452        C453   1.265       .  A
C453        O454   1.265       .  A
C453        C767   1.494       .  S
O454       Cr459   2.007       .  S
O455       Cr459   1.982       .  S
O455        C456   1.260       .  A
C456        C727   1.488       .  S
Cr457       O460   1.771       .  S
Cr458       O460   1.781       .  S
Cr459       O460   1.780       .  S
O461       Cr479   1.956       .  S
O461        C469   1.256       .  A
O462       Cr479   1.949       .  S
O462        C463   1.251       .  A
C463        O464   1.266       .  A
C463        C797   1.455       .  S
O464       Cr480   1.997       .  S
O465       Cr480   2.039       .  S
O465        C466   1.265       .  A
C466        O467   1.248       .  A
C466        C764   1.485       .  S
O467       Cr481   1.953       .  S
O468       Cr481   2.067       .  S
O468        C469   1.283       .  A
C469        C714   1.513       .  S
O470       Cr479   1.972       .  S
O470        C478   1.256       .  A
O471       Cr479   1.974       .  S
O471        C472   1.263       .  A
C472        O473   1.272       .  A
C472        C754   1.469       .  S
O473       Cr480   2.021       .  S
O474       Cr480   1.956       .  S
O474        C475   1.259       .  A
C475        O476   1.285       .  A
C475        C787   1.510       .  S
O476       Cr481   2.069       .  S
O477       Cr481   1.991       .  S
O477        C478   1.258       .  A
C478        C704   1.474       .  S
Cr479       O482   1.773       .  S
Cr480       O482   1.778       .  S
Cr481       O482   1.768       .  S
O483       Cr501   2.003       .  S
O483        C491   1.264       .  A
O484       Cr501   1.953       .  S
O484        C485   1.252       .  A
C485        O486   1.256       .  A
C485        C747   1.448       .  S
O486       Cr502   1.965       .  S
O487       Cr502   2.012       .  S
O487        C488   1.265       .  A
C488        O489   1.255       .  A
C488        C807   1.482       .  S
O489       Cr503   1.969       .  S
O490       Cr503   2.021       .  S
O490        C491   1.271       .  A
C491        C717   1.507       .  S
O492       Cr501   1.982       .  S
O492        C500   1.260       .  A
O493       Cr501   2.004       .  S
O493        C494   1.264       .  A
C494        O495   1.266       .  A
C494        C817   1.499       .  S
O495       Cr502   1.993       .  S
O496       Cr502   1.966       .  S
O496        C497   1.259       .  A
C497        O498   1.280       .  A
C497        C734   1.488       .  S
O498       Cr503   2.025       .  S
O499       Cr503   2.010       .  S
O499        C500   1.265       .  A
C500        C694   1.492       .  S
Cr501       O504   1.787       .  S
Cr502       O504   1.782       .  S
Cr503       O504   1.774       .  S
O505       Cr523   1.962       .  S
O505        C513   1.258       .  A
O506       Cr523   1.960       .  S
O506        C507   1.254       .  A
C507        O508   1.262       .  A
C507        C654   1.437       .  S
O508       Cr524   1.983       .  S
O509       Cr524   2.039       .  S
O509        C510   1.267       .  A
C510        O511   1.251       .  A
C510        C674   1.481       .  S
O511       Cr525   1.965       .  S
O512       Cr525   2.062       .  S
O512        C513   1.281       .  A
C513        C684   1.514       .  S
O514       Cr523   1.978       .  S
O514        C522   1.258       .  A
O515       Cr523   1.977       .  S
O515        C516   1.262       .  A
C516        O517   1.271       .  A
C516        C667   1.473       .  S
O517       Cr524   2.023       .  S
O518       Cr524   1.949       .  S
O518        C519   1.257       .  A
C519        O520   1.282       .  A
C519        C644   1.502       .  S
O520       Cr525   2.063       .  S
O521       Cr525   1.981       .  S
O521        C522   1.257       .  A
C522        C777   1.467       .  S
Cr523       O526   1.772       .  S
Cr524       O526   1.772       .  S
Cr525       O526   1.769       .  S
O527       Cr545   2.004       .  S
O527        C535   1.263       .  A
O528       Cr545   1.960       .  S
O528        C529   1.255       .  A
C529        O530   1.254       .  A
C529        C614   1.456       .  S
O530       Cr546   1.960       .  S
O531       Cr546   2.001       .  S
O531        C532   1.264       .  A
C532        O533   1.259       .  A
C532        C624   1.472       .  S
O533       Cr547   1.988       .  S
O534       Cr547   2.016       .  S
O534        C535   1.269       .  A
C535        C687   1.506       .  S
O536       Cr545   1.973       .  S
O536        C544   1.258       .  A
O537       Cr545   2.007       .  S
O537        C538   1.264       .  A
C538        O539   1.266       .  A
C538        C637   1.494       .  S
O539       Cr546   1.990       .  S
O540       Cr546   1.960       .  S
O540        C541   1.257       .  A
C541        O542   1.275       .  A
C541        C607   1.478       .  S
O542       Cr547   2.016       .  S
O543       Cr547   2.017       .  S
O543        C544   1.268       .  A
C544        C724   1.489       .  S
Cr545       O548   1.781       .  S
Cr546       O548   1.773       .  S
Cr547       O548   1.774       .  S
O549       Cr567   2.053       .  S
O549        C557   1.279       .  A
O550       Cr567   1.956       .  S
O550        C551   1.247       .  A
C551        O552   1.263       .  A
C551        C634   1.482       .  S
O552       Cr568   2.037       .  S
O553       Cr568   1.994       .  S
O553        C554   1.268       .  A
C554        O555   1.255       .  A
C554        C657   1.464       .  S
O555       Cr569   1.952       .  S
O556       Cr569   1.954       .  S
O556        C557   1.254       .  A
C557        C597   1.512       .  S
O558       Cr567   1.986       .  S
O558        C566   1.257       .  A
O559       Cr567   2.057       .  S
O559        C560   1.284       .  A
C560        O561   1.264       .  A
C560        C647   1.504       .  S
O561       Cr568   1.963       .  S
O562       Cr568   2.027       .  S
O562        C563   1.270       .  A
C563        O564   1.263       .  A
C563        C627   1.481       .  S
O564       Cr569   1.986       .  S
O565       Cr569   1.975       .  S
O565        C566   1.258       .  A
C566        C707   1.478       .  S
Cr567       O570   1.772       .  S
Cr568       O570   1.781       .  S
Cr569       O570   1.773       .  S
O571       Cr589   2.018       .  S
O571        C579   1.268       .  A
O572       Cr589   1.973       .  S
O572        C573   1.256       .  A
C573        O574   1.267       .  A
C573        C664   1.485       .  S
O574       Cr590   2.014       .  S
O575       Cr590   1.969       .  S
O575        C576   1.257       .  A
C576        O577   1.254       .  A
C576        C617   1.459       .  S
O577       Cr591   1.961       .  S
O578       Cr591   2.002       .  S
O578        C579   1.262       .  A
C579        C594   1.510       .  S
O580       Cr589   2.019       .  S
O580        C588   1.269       .  A
O581       Cr589   2.016       .  S
O581        C582   1.277       .  A
C582        O583   1.259       .  A
C582        C604   1.479       .  S
O583       Cr590   1.961       .  S
O584       Cr590   2.002       .  S
O584        C585   1.267       .  A
C585        O586   1.264       .  A
C585        C677   1.500       .  S
O586       Cr591   2.003       .  S
O587       Cr591   1.980       .  S
O587        C588   1.259       .  A
C588        C697   1.495       .  S
Cr589       O592   1.776       .  S
Cr590       O592   1.779       .  S
Cr591       O592   1.782       .  S
C593       C1426   1.405       .  A
C593        C598   1.406       .  A
C593        F600   1.358       .  S
C594       C1425   1.406   1_455  A
C594        C595   1.419       .  A
C595       C1012   1.414   1_455  A
C596       C1011   1.413   1_556  A
C596        C597   1.409       .  A
C596       F1433   1.357       .  S
C598        F599   1.358       .  S
F601       C1428   1.357       .  S
C603        C604   1.416       .  A
C603        C608   1.401       .  A
C603        F610   1.358       .  S
C604        C605   1.401       .  A
C605        C606   1.400       .  A
C605        F612   1.358       .  S
C606        C607   1.415       .  A
C606        F611   1.359       .  S
C607        C608   1.400       .  A
C608        F609   1.358       .  S
C613        C614   1.400   1_554  A
C613        F620   1.358       .  S
C614        C615   1.412       .  A
C615        F622   1.359       .  S
C616        C617   1.405       .  A
C616        F621   1.358       .  S
C617        C618   1.405       .  A
C618        F619   1.359       .  S
C623        C624   1.411       .  A
C623        C628   1.405       .  A
C623        F630   1.358       .  S
C624        C625   1.397       .  A
C625        C626   1.398       .  A
C625        F632   1.358       .  S
C626        C627   1.412       .  A
C626        F631   1.354       .  S
C627        C628   1.401       .  A
C628        F629   1.357       .  S
C633        C634   1.402       .  A
C633        C638   1.409       .  A
C633        F640   1.357       .  S
C634        C635   1.407       .  A
C635       C1468   1.397       .  A
C635        F642   1.358       .  S
C636       C1467   1.396   1_455  A
C636        C637   1.407       .  A
C636        F641   1.358       .  S
C637       C1470   1.418       .  A
C638       C1469   1.419       .  A
C638        F639   1.358       .  S
C643        C644   1.405       .  A
C643        C648   1.406       .  A
C643        F650   1.357       .  S
C644        C645   1.420       .  A
C645        C646   1.403       .  A
C645        F652   1.359       .  S
C646        C647   1.407       .  A
C646        F651   1.358       .  S
C647        C648   1.419       .  A
C648        F649   1.357       .  S
C653        C654   1.396       .  A
C653        F660   1.359       .  S
C654        C655   1.406       .  A
C655        F662   1.358       .  S
C656        C657   1.417       .  A
C656        F661   1.359       .  S
C657        C658   1.396       .  A
C658        F659   1.358       .  S
C663        C664   1.415       .  A
C663       C1500   1.397   1_455  A
C663        F670   1.358       .  S
C664       C1497   1.403   1_455  A
C665       C1496   1.404       .  A
C665        C666   1.405       .  A
C665        F672   1.357       .  S
C666        C667   1.410       .  A
C666        F671   1.358       .  S
C667        C668   1.397       .  A
C668       C1495   1.397       .  A
C668        F669   1.358       .  S
C673        C674   1.400       .  A
C673        C678   1.406       .  A
C673        F680   1.358       .  S
C674        C675   1.407       .  A
C675        C676   1.404       .  A
C675        F682   1.357       .  S
C676        C677   1.409       .  A
C676        F681   1.358       .  S
C677        C678   1.418       .  A
C678        F679   1.358       .  S
C683        C684   1.420       .  A
C684        C685   1.410       .  A
C685        C686   1.414       .  A
C685        F692   1.357       .  S
C686        F691   1.357       .  S
C687        C688   1.405       .  A
C688        F689   1.358       .  S
C693        C694   1.410       .  A
C693        C698   1.402       .  A
C693        F700   1.358       .  S
C694        C695   1.409       .  A
C695        C696   1.404       .  A
C695        F702   1.358       .  S
C696        C697   1.412       .  A
C696        F701   1.357       .  S
C697        C698   1.409       .  A
C698        F699   1.358       .  S
C703        C704   1.405       .  A
C703        C708   1.403       .  A
C703        F710   1.357       .  S
C704        C705   1.406       .  A
C705        C706   1.394       .  A
C705        F712   1.359       .  S
C706        C707   1.407       .  A
C706        F711   1.359       .  S
C707        C708   1.408       .  A
C708        F709   1.357       .  S
C713        C718   1.404       .  A
C713        F720   1.356       .  S
C714        C715   1.409       .  A
C715       C1132   1.414   1_556  A
C715       F1554   1.357       .  S
C716       C1131   1.415   1_455  A
C716        C717   1.419       .  A
C717       C1550   1.403   1_455  A
C718       C1549   1.403       .  A
C718        F719   1.358       .  S
F722       C1547   1.357   1_455  S
C723        C724   1.407       .  A
C723        C728   1.399   1_545  A
C723        F730   1.358       .  S
C724        C725   1.412       .  A
C725        C726   1.402   1_545  A
C725        F732   1.358       .  S
C726        C727   1.409       .  A
C726        F731   1.358       .  S
C727        C728   1.410       .  A
C728        F729   1.358       .  S
C733        C734   1.420       .  A
C733        C738   1.403       .  A
C733        F740   1.358       .  S
C734        C735   1.400       .  A
C735        C736   1.402       .  A
C735        F742   1.358       .  S
C736        C737   1.418       .  A
C736        F741   1.359       .  S
C737        C738   1.399       .  A
C738        F739   1.358       .  S
C743        C744   1.407       .  A
C743        F750   1.358       .  S
C744        C745   1.403       .  A
C745        F752   1.359       .  S
C746        C747   1.406       .  A
C746        F751   1.359       .  S
C747        C748   1.401       .  A
C748        F749   1.359       .  S
C753        C754   1.396       .  A
C753        C758   1.394       .  A
C753        F760   1.358       .  S
C754        C755   1.411       .  A
C755        C756   1.405       .  A
C755        F762   1.358       .  S
C756        C757   1.403       .  A
C756        F761   1.357       .  S
C757        C758   1.416       .  A
C758        F759   1.359       .  S
C763        C764   1.403       .  A
C763        C768   1.410       .  A
C763        F770   1.357       .  S
C764        C765   1.409       .  A
C765       C1598   1.396       .  A
C765        F772   1.359       .  S
C766       C1597   1.396   1_455  A
C766        C767   1.407       .  A
C766        F771   1.358       .  S
C767       C1600   1.416       .  A
C768       C1599   1.417       .  A
C768       F1601   1.357       .  S
F769       C1600   1.357       .  S
C773        C774   1.405       .  A
C773        C778   1.394   1_565  A
C773        F780   1.359       .  S
C774        C775   1.405       .  A
C775        C776   1.398   1_565  A
C775        F782   1.358       .  S
C776        C777   1.404       .  A
C776        F781   1.358       .  S
C777        C778   1.405       .  A
C778        F779   1.359       .  S
C783        C784   1.406       .  A
C783        C788   1.407       .  A
C783        F790   1.358       .  S
C784        C785   1.421       .  A
C785        C786   1.408       .  A
C785        F792   1.358       .  S
C786        C787   1.406       .  A
C786        F791   1.357       .  S
C787        C788   1.422       .  A
C788        F789   1.358       .  S
C793        C794   1.414       .  A
C793        F800   1.358       .  S
C794        C795   1.394       .  A
C795        F802   1.358       .  S
C796        C797   1.413       .  A
C796        F801   1.358       .  S
C797        C798   1.394       .  A
C798        F799   1.358       .  S
C803        C804   1.412       .  A
C803        C808   1.408       .  A
C803        F810   1.358       .  S
C804        C805   1.396       .  A
C805       C1638   1.396       .  A
C805        F812   1.358       .  S
C806       C1637   1.396   1_455  A
C806        C807   1.415       .  A
C806        F811   1.359       .  S
C807       C1640   1.402   1_455  A
C808       C1639   1.404       .  A
C808        F809   1.357       .  S
C813        C814   1.402       .  A
C813        C818   1.409       .  A
C813        F820   1.357       .  S
C814        C815   1.409       .  A
C815        C816   1.398       .  A
C815        F822   1.359       .  S
C816        C817   1.409       .  A
C816        F821   1.358       .  S
C817        C818   1.419       .  A
C818        F819   1.357       .  S
C823        C824   1.405       .  A
C823        F830   1.358       .  S
C825        C826   1.414       .  A
C825        F832   1.358       .  S
C826        C827   1.409       .  A
C826        F831   1.357       .  S
C827        C828   1.420       .  A
O833       Cr851   2.049       .  S
O833        C841   1.278       .  A
O834       Cr851   1.950       .  S
O834        C835   1.243       .  A
C835        O836   1.265       .  A
C835       C1230   1.493       .  S
O836       Cr852   2.052       .  S
O837       Cr852   1.991       .  S
O837        C838   1.269       .  A
C838        O839   1.254       .  A
C838       C1210   1.454       .  S
O839       Cr853   1.947       .  S
O840       Cr853   1.959       .  S
O840        C841   1.254       .  A
C841       C1243   1.512       .  S
O842       Cr851   1.984       .  S
O842        C850   1.257       .  A
O843       Cr851   2.065       .  S
O843        C844   1.285       .  A
C844        O845   1.261       .  A
C844       C1200   1.505       .  S
O845       Cr852   1.956       .  S
O846       Cr852   2.021       .  S
O846        C847   1.269       .  A
C847        O848   1.263       .  A
C847       C1220   1.473       .  S
O848       Cr853   1.980       .  S
O849       Cr853   1.974       .  S
O849        C850   1.259       .  A
C850       C1190   1.474       .  S
Cr851       O854   1.765       .  S
Cr852       O854   1.782       .  S
Cr853       O854   1.771       .  S
O855       Cr873   2.019       .  S
O855        C863   1.270       .  A
O856       Cr873   1.986       .  S
O856        C857   1.259       .  A
C857        O858   1.264       .  A
C857       C1173   1.481       .  S
O858       Cr874   2.005       .  S
O859       Cr874   1.964       .  S
O859        C860   1.256       .  A
C860        O861   1.255       .  A
C860       C1160   1.458       .  S
O861       Cr875   1.958       .  S
O862       Cr875   2.002       .  S
O862        C863   1.262       .  A
C863       C1240   1.505       .  S
O864       Cr873   2.015       .  S
O864        C872   1.267       .  A
O865       Cr873   2.014       .  S
O865        C866   1.275       .  A
C866        O867   1.259       .  A
C866       C1153   1.473       .  S
O867       Cr874   1.962       .  S
O868       Cr874   1.998       .  S
O868        C869   1.266       .  A
C869        O870   1.263       .  A
C869       C1183   1.496       .  S
O870       Cr875   2.000       .  S
O871       Cr875   1.973       .  S
O871        C872   1.258       .  A
C872       C1143   1.485       .  S
Cr873       O876   1.776       .  S
Cr874       O876   1.778       .  S
Cr875       O876   1.779       .  S
O877       Cr895   1.956       .  S
O877        C885   1.256       .  A
O878       Cr895   1.953       .  S
O878        C879   1.254       .  A
C879        O880   1.267       .  A
C879       C1213   1.456       .  S
O880       Cr896   1.992       .  S
O881       Cr896   2.038       .  S
O881        C882   1.264       .  A
C882        O883   1.247       .  A
C882       C1180   1.481       .  S
O883       Cr897   1.952       .  S
O884       Cr897   2.063       .  S
O884        C885   1.281       .  A
C885       C1130   1.515       .  S
O886       Cr895   1.971       .  S
O886        C894   1.256       .  A
O887       Cr895   1.981       .  S
O887        C888   1.263       .  A
C888        O889   1.270       .  A
C888       C1170   1.474       .  S
O889       Cr896   2.021       .  S
O890       Cr896   1.956       .  S
O890        C891   1.260       .  A
C891        O892   1.284       .  A
C891       C1203   1.505       .  S
O892       Cr897   2.065       .  S
O893       Cr897   1.980       .  S
O893        C894   1.255       .  A
C894       C1120   1.466       .  S
Cr895       O898   1.773       .  S
Cr896       O898   1.777       .  S
Cr897       O898   1.772       .  S
O899       Cr917   2.008       .  S
O899        C907   1.266       .  A
O900       Cr917   1.953       .  S
O900        C901   1.252       .  A
C901        O902   1.257       .  A
C901       C1163   1.455       .  S
O902       Cr918   1.968       .  S
O903       Cr918   2.007       .  S
O903        C904   1.264       .  A
C904        O905   1.254       .  A
C904       C1223   1.474       .  S
O905       Cr919   1.972       .  S
O906       Cr919   2.020       .  S
O906        C907   1.271       .  A
C907       C1133   1.507       .  S
O908       Cr917   1.981       .  S
O908        C916   1.259       .  A
O909       Cr917   2.006       .  S
O909        C910   1.264       .  A
C910        O911   1.264       .  A
C910       C1233   1.488       .  S
O911       Cr918   1.986       .  S
O912       Cr918   1.966       .  S
O912        C913   1.260       .  A
C913        O914   1.277       .  A
C913       C1150   1.474       .  S
O914       Cr919   2.014       .  S
O915       Cr919   2.002       .  S
O915        C916   1.263       .  A
C916       C1110   1.487       .  S
Cr917       O920   1.782       .  S
Cr918       O920   1.778       .  S
Cr919       O920   1.775       .  S
O921       Cr939   1.948       .  S
O921        C929   1.255       .  A
O922       Cr939   1.954       .  S
O922        C923   1.252       .  A
C923        O924   1.269       .  A
C923       C1070   1.464       .  S
O924       Cr940   2.000       .  S
O925       Cr940   2.049       .  S
O925        C926   1.267       .  A
C926        O927   1.248       .  A
C926       C1090   1.492       .  S
O927       Cr941   1.954       .  S
O928       Cr941   2.054       .  S
O928        C929   1.281       .  A
C929       C1100   1.510       .  S
O930       Cr939   1.975       .  S
O930        C938   1.256       .  A
O931       Cr939   1.977       .  S
O931        C932   1.265       .  A
C932        O933   1.272       .  A
C932       C1083   1.471       .  S
O933       Cr940   2.018       .  S
O934       Cr940   1.945       .  S
O934        C935   1.257       .  A
C935        O936   1.281       .  A
C935       C1060   1.495       .  S
O936       Cr941   2.051       .  S
O937       Cr941   1.986       .  S
O937        C938   1.255       .  A
C938       C1193   1.473       .  S
Cr939       O942   1.776       .  S
Cr940       O942   1.774       .  S
Cr941       O942   1.773       .  S
O943       Cr961   2.018       .  S
O943        C951   1.268       .  A
O944       Cr961   1.956       .  S
O944        C945   1.253       .  A
C945        O946   1.256       .  A
C945       C1030   1.456       .  S
O946       Cr962   1.967       .  S
O947       Cr962   2.025       .  S
O947        C948   1.270       .  A
C948        O949   1.256       .  A
C948       C1040   1.494       .  S
O949       Cr963   1.969       .  S
O950       Cr963   2.004       .  S
O950        C951   1.267       .  A
C951       C1103   1.511       .  S
O952       Cr961   1.978       .  S
O952        C960   1.257       .  A
O953       Cr961   2.014       .  S
O953        C954   1.267       .  A
C954        O955   1.267       .  A
C954       C1053   1.505       .  S
O955       Cr962   1.999       .  S
O956       Cr962   1.957       .  S
O956        C957   1.258       .  A
C957        O958   1.276       .  A
C957       C1023   1.475       .  S
O958       Cr963   2.015       .  S
O959       Cr963   2.007       .  S
O959        C960   1.263       .  A
C960       C1140   1.486       .  S
Cr961       O964   1.786       .  S
Cr962       O964   1.781       .  S
Cr963       O964   1.778       .  S
O965       Cr983   2.059       .  S
O965        C973   1.280       .  A
O966       Cr983   1.957       .  S
O966        C967   1.248       .  A
C967        O968   1.268       .  A
C967       C1050   1.493       .  S
O968       Cr984   2.057       .  S
O969       Cr984   1.980       .  S
O969        C970   1.265       .  A
C970        O971   1.256       .  A
C970       C1073   1.436       .  S
O971       Cr985   1.960       .  S
O972       Cr985   1.959       .  S
O972        C973   1.256       .  A
C973       C1013   1.515       .  S
O974       Cr983   1.972       .  S
O974        C982   1.255       .  A
O975       Cr983   2.060       .  S
O975        C976   1.283       .  A
C976        O977   1.257       .  A
C976       C1063   1.495       .  S
O977       Cr984   1.944       .  S
O978       Cr984   2.025       .  S
O978        C979   1.271       .  A
C979        O980   1.264       .  A
C979       C1043   1.479       .  S
O980       Cr985   1.981       .  S
O981       Cr985   1.984       .  S
O981        C982   1.260       .  A
C982       C1123   1.468       .  S
Cr983       O986   1.770       .  S
Cr984       O986   1.774       .  S
Cr985       O986   1.775       .  S
O987      Cr1005   2.017       .  S
O987        C995   1.269       .  A
O988      Cr1005   1.966       .  S
O988        C989   1.254       .  A
C989        O990   1.266       .  A
C989       C1080   1.488       .  S
O990      Cr1006   2.015       .  S
O991      Cr1006   1.955       .  S
O991        C992   1.254       .  A
C992        O993   1.255       .  A
C992       C1033   1.452       .  S
O993      Cr1007   1.957       .  S
O994      Cr1007   2.004       .  S
O994        C995   1.263       .  A
C995       C1010   1.506       .  S
O996      Cr1005   2.003       .  S
O996       C1004   1.265       .  A
O997      Cr1005   2.019       .  S
O997        C998   1.278       .  A
C998        O999   1.257       .  A
C998       C1020   1.474       .  S
O999      Cr1006   1.950       .  S
O1000     Cr1006   2.001       .  S
O1000      C1001   1.267       .  A
C1001      O1002   1.263       .  A
C1001      C1093   1.503       .  S
O1002     Cr1007   2.003       .  S
O1003     Cr1007   1.983       .  S
O1003      C1004   1.258       .  A
C1004      C1113   1.489       .  S
Cr1005     O1008   1.776       .  S
Cr1006     O1008   1.782       .  S
Cr1007     O1008   1.785       .  S
C1009      C1014   1.406       .  A
C1009      F1016   1.358       .  S
C1010      C1011   1.417       .  A
C1011      F1434   1.357       .  S
C1012      C1013   1.409       .  A
C1013      C1430   1.422       .  A
C1014      C1429   1.421   1_554  A
C1014      F1015   1.357       .  S
F1018      C1427   1.357       .  S
C1019      C1020   1.416       .  A
C1019      C1024   1.400       .  A
C1019      F1026   1.359       .  S
C1020      C1021   1.399       .  A
C1021      C1022   1.399       .  A
C1021      F1028   1.358       .  S
C1022      C1023   1.415       .  A
C1022      F1027   1.359       .  S
C1023      C1024   1.400       .  A
C1024      F1025   1.358       .  S
C1029      C1030   1.407       .  A
C1029      C1450   1.389       .  A
C1029      F1036   1.359       .  S
C1030      C1031   1.403       .  A
C1031      C1448   1.387       .  A
C1031      F1038   1.358       .  S
C1032      C1447   1.384       .  A
C1032      C1033   1.398   1_556  A
C1032      F1037   1.358       .  S
C1033      C1034   1.410       .  A
C1034      C1445   1.385       .  A
C1034      F1035   1.359       .  S
C1039      C1040   1.417       .  A
C1039      C1044   1.396       .  A
C1039      F1046   1.358       .  S
C1040      C1041   1.406       .  A
C1041      C1042   1.412       .  A
C1041      F1048   1.357       .  S
C1042      C1043   1.413       .  A
C1042      F1047   1.358       .  S
C1043      C1044   1.395       .  A
C1044      F1045   1.358       .  S
C1049      C1050   1.404       .  A
C1049      C1054   1.414   1_655  A
C1049      F1056   1.357       .  S
C1050      C1051   1.409       .  A
C1051      F1058   1.358       .  S
C1052      C1053   1.410       .  A
C1052      F1057   1.358       .  S
C1054      F1055   1.357       .  S
C1059      C1060   1.404       .  A
C1059      C1064   1.402       .  A
C1059      F1066   1.358       .  S
C1060      C1061   1.419       .  A
C1061      C1062   1.400       .  A
C1061      F1068   1.358       .  S
C1062      C1063   1.404       .  A
C1062      F1067   1.358       .  S
C1063      C1064   1.420       .  A
C1064      F1065   1.358       .  S
C1069      C1070   1.418       .  A
C1069      C1490   1.390   1_554  A
C1069      F1076   1.359       .  S
C1070      C1071   1.395       .  A
C1071      C1488   1.389       .  A
C1071      F1078   1.358       .  S
C1072      C1487   1.387       .  A
C1072      C1073   1.395       .  A
C1072      F1077   1.358       .  S
C1073      C1074   1.407       .  A
C1074      C1485   1.388       .  A
C1074      F1075   1.358       .  S
C1079      C1080   1.417       .  A
C1079      F1086   1.358       .  S
C1081      C1082   1.408       .  A
C1081      F1088   1.357       .  S
C1082      C1083   1.411       .  A
C1082      F1087   1.358       .  S
C1083      C1084   1.396       .  A
C1084      F1085   1.358       .  S
C1089      C1090   1.403       .  A
C1089      C1094   1.411       .  A
C1089      F1096   1.357       .  S
C1090      C1091   1.411       .  A
C1091      C1092   1.401       .  A
C1091      F1098   1.359       .  S
C1092      C1093   1.408       .  A
C1092      F1097   1.358       .  S
C1093      C1094   1.420       .  A
C1094      F1095   1.357       .  S
C1099      C1100   1.422       .  A
C1099      C1520   1.402   1_554  A
C1099      F1522   1.358       .  S
C1100      C1101   1.408       .  A
C1101      C1102   1.412   1_554  A
C1101      F1108   1.357       .  S
C1102      C1519   1.418       .  A
C1102      F1107   1.357       .  S
C1103      C1518   1.417       .  A
C1103      C1104   1.408       .  A
C1104      C1515   1.405       .  A
C1104      F1105   1.358       .  S
F1106      C1515   1.358       .  S
C1109      C1110   1.409       .  A
C1109      C1114   1.398       .  A
C1109      F1116   1.358       .  S
C1110      C1111   1.409       .  A
C1111      C1112   1.403       .  A
C1111      F1118   1.358       .  S
C1112      C1113   1.411       .  A
C1112      F1117   1.357       .  S
C1113      C1114   1.409       .  A
C1114      F1115   1.358       .  S
C1119      C1120   1.404       .  A
C1119      C1124   1.398       .  A
C1119      F1126   1.358       .  S
C1120      C1121   1.405       .  A
C1121      C1122   1.394       .  A
C1121      F1128   1.358       .  S
C1122      C1123   1.404       .  A
C1122      F1127   1.358       .  S
C1123      C1124   1.406       .  A
C1124      F1125   1.358       .  S
C1129      C1546   1.420   1_554  A
C1129      C1134   1.408       .  A
C1129      F1136   1.357       .  S
C1130      C1545   1.421       .  A
C1130      C1131   1.409       .  A
C1132      C1133   1.418       .  A
C1132      F1553   1.357       .  S
C1134      F1135   1.358       .  S
F1137      C1548   1.357       .  S
C1139      C1140   1.409       .  A
C1139      C1144   1.402   1_545  A
C1139      F1146   1.358       .  S
C1140      C1141   1.409       .  A
C1141      C1142   1.400   1_545  A
C1141      F1148   1.358       .  S
C1142      C1143   1.410       .  A
C1142      F1147   1.358       .  S
C1143      C1144   1.407       .  A
C1144      F1145   1.358       .  S
C1149      C1150   1.413       .  A
C1149      C1154   1.401       .  A
C1149      F1156   1.358       .  S
C1150      C1151   1.400       .  A
C1151      C1152   1.400       .  A
C1151      F1158   1.358       .  S
C1152      C1153   1.412       .  A
C1152      F1157   1.358       .  S
C1153      C1154   1.401       .  A
C1154      F1155   1.358       .  S
C1159      C1160   1.401       .  A
C1159      C1580   1.386       .  A
C1159      F1166   1.358       .  S
C1160      C1161   1.410       .  A
C1161      C1578   1.385       .  A
C1161      F1168   1.359       .  S
C1162      C1577   1.388   1_554  A
C1162      C1163   1.407       .  A
C1162      F1167   1.359       .  S
C1163      C1164   1.402       .  A
C1164      C1575   1.386   1_554  A
C1164      F1165   1.359       .  S
C1169      C1170   1.399       .  A
C1169      C1174   1.400       .  A
C1169      F1176   1.358       .  S
C1170      C1171   1.410       .  A
C1171      C1172   1.403       .  A
C1171      F1178   1.357       .  S
C1172      C1173   1.402       .  A
C1172      F1177   1.357       .  S
C1173      C1174   1.413       .  A
C1174      F1175   1.358       .  S
C1179      C1180   1.400       .  A
C1179      C1184   1.407   1_655  A
C1179      F1186   1.357       .  S
C1180      C1181   1.408       .  A
C1181      F1188   1.359       .  S
C1182      C1183   1.407       .  A
C1182      F1187   1.358       .  S
C1189      C1190   1.406       .  A
C1189      C1194   1.393   1_565  A
C1189      F1196   1.359       .  S
C1190      C1191   1.407       .  A
C1191      C1192   1.402   1_565  A
C1191      F1198   1.357       .  S
C1192      C1193   1.406       .  A
C1192      F1197   1.357       .  S
C1193      C1194   1.405       .  A
C1194      F1195   1.359       .  S
C1199      C1200   1.405       .  A
C1199      C1204   1.405       .  A
C1199      F1206   1.358       .  S
C1200      C1201   1.420       .  A
C1201      C1202   1.406       .  A
C1201      F1208   1.358       .  S
C1202      C1203   1.406       .  A
C1202      F1207   1.358       .  S
C1203      C1204   1.420       .  A
C1204      F1205   1.358       .  S
C1209      C1210   1.415       .  A
C1209      C1630   1.388   1_554  A
C1209      F1216   1.358       .  S
C1210      C1211   1.394       .  A
C1211      C1628   1.387   1_554  A
C1211      F1218   1.358       .  S
C1212      C1627   1.389       .  A
C1212      C1213   1.413       .  A
C1212      F1217   1.357       .  S
C1213      C1214   1.394       .  A
C1214      C1625   1.389       .  A
C1214      F1215   1.358       .  S
C1219      C1220   1.412       .  A
C1219      C1224   1.400       .  A
C1219      F1226   1.355       .  S
C1220      C1221   1.397       .  A
C1221      F1228   1.358       .  S
C1222      C1223   1.414       .  A
C1222      F1227   1.358       .  S
C1224      F1225   1.358       .  S
C1229      C1230   1.407       .  A
C1229      C1234   1.411       .  A
C1229      F1236   1.357       .  S
C1230      C1231   1.414       .  A
C1231      C1232   1.395       .  A
C1231      F1238   1.359       .  S
C1232      C1233   1.404       .  A
C1232      F1237   1.359       .  S
C1233      C1234   1.412       .  A
C1234      F1235   1.357       .  S
C1239      C1240   1.403       .  A
C1239      C1660   1.404       .  A
C1239      F1246   1.358       .  S
C1240      C1657   1.419       .  A
C1241      C1656   1.417       .  A
C1241      C1242   1.411   1_556  A
C1241      F1248   1.357       .  S
C1242      C1243   1.408       .  A
C1242      F1247   1.357       .  S
C1243      C1244   1.421       .  A
C1244      C1655   1.409   1_554  A
C1244      F1661   1.357       .  S
F1245      C1660   1.356       .  S
O1249     Cr1267   2.058       .  S
O1249      C1257   1.280       .  A
O1250     Cr1267   1.950       .  S
O1250      C1251   1.246       .  A
C1251      O1252   1.265       .  A
C1251      C1646   1.486       .  S
O1252     Cr1268   2.046       .  S
O1253     Cr1268   1.996       .  S
O1253      C1254   1.269       .  A
C1254      O1255   1.254       .  A
C1254      C1626   1.458       .  S
O1255     Cr1269   1.952       .  S
O1256     Cr1269   1.953       .  S
O1256      C1257   1.255       .  A
C1257      C1659   1.512       .  S
O1258     Cr1267   1.978       .  S
O1258      C1266   1.256       .  A
O1259     Cr1267   2.067       .  S
O1259      C1260   1.285       .  A
C1260      O1261   1.261       .  A
C1260      C1616   1.509       .  S
O1261     Cr1268   1.960       .  S
O1262     Cr1268   2.019       .  S
O1262      C1263   1.270       .  A
C1263      O1264   1.263       .  A
C1263      C1636   1.472       .  S
O1264     Cr1269   1.977       .  S
O1265     Cr1269   1.977       .  S
O1265      C1266   1.258       .  A
C1266      C1606   1.468       .  S
Cr1267     O1270   1.771       .  S
Cr1268     O1270   1.779       .  S
Cr1269     O1270   1.774       .  S
O1271     Cr1289   2.023       .  S
O1271      C1279   1.271       .  A
O1272     Cr1289   1.967       .  S
O1272      C1273   1.256       .  A
C1273      O1274   1.266       .  A
C1273      C1589   1.481       .  S
O1274     Cr1290   2.011       .  S
O1275     Cr1290   1.969       .  S
O1275      C1276   1.255       .  A
C1276      O1277   1.252       .  A
C1276      C1576   1.454       .  S
O1277     Cr1291   1.955       .  S
O1278     Cr1291   2.004       .  S
O1278      C1279   1.264       .  A
C1279      C1656   1.506       .  S
O1280     Cr1289   2.003       .  S
O1280      C1288   1.264       .  A
O1281     Cr1289   2.025       .  S
O1281      C1282   1.279       .  A
C1282      O1283   1.258       .  A
C1282      C1569   1.483       .  S
O1283     Cr1290   1.960       .  S
O1284     Cr1290   1.989       .  S
O1284      C1285   1.265       .  A
C1285      O1286   1.265       .  A
C1285      C1599   1.495       .  S
O1286     Cr1291   2.008       .  S
O1287     Cr1291   1.982       .  S
O1287      C1288   1.259       .  A
C1288      C1559   1.489       .  S
Cr1289     O1292   1.772       .  S
Cr1290     O1292   1.780       .  S
Cr1291     O1292   1.781       .  S
O1293     Cr1311   1.956       .  S
O1293      C1301   1.256       .  A
O1294     Cr1311   1.947       .  S
O1294      C1295   1.251       .  A
C1295      O1296   1.266       .  A
C1295      C1629   1.453       .  S
O1296     Cr1312   1.997       .  S
O1297     Cr1312   2.041       .  S
O1297      C1298   1.265       .  A
C1298      O1299   1.248       .  A
C1298      C1596   1.485       .  S
O1299     Cr1313   1.952       .  S
O1300     Cr1313   2.065       .  S
O1300      C1301   1.283       .  A
C1301      C1546   1.512       .  S
O1302     Cr1311   1.972       .  S
O1302      C1310   1.256       .  A
O1303     Cr1311   1.973       .  S
O1303      C1304   1.263       .  A
C1304      O1305   1.273       .  A
C1304      C1586   1.469       .  S
O1305     Cr1312   2.023       .  S
O1306     Cr1312   1.959       .  S
O1306      C1307   1.260       .  A
C1307      O1308   1.285       .  A
C1307      C1619   1.509       .  S
O1308     Cr1313   2.067       .  S
O1309     Cr1313   1.992       .  S
O1309      C1310   1.258       .  A
C1310      C1536   1.475       .  S
Cr1311     O1314   1.773       .  S
Cr1312     O1314   1.779       .  S
Cr1313     O1314   1.767       .  S
O1315     Cr1333   2.006       .  S
O1315      C1323   1.264       .  A
O1316     Cr1333   1.954       .  S
O1316      C1317   1.253       .  A
C1317      O1318   1.254       .  A
C1317      C1579   1.458       .  S
O1318     Cr1334   1.963       .  S
O1319     Cr1334   2.017       .  S
O1319      C1320   1.267       .  A
C1320      O1321   1.256       .  A
C1320      C1639   1.487       .  S
O1321     Cr1335   1.969       .  S
O1322     Cr1335   2.018       .  S
O1322      C1323   1.271       .  A
C1323      C1549   1.511       .  S
O1324     Cr1333   1.980       .  S
O1324      C1332   1.259       .  A
O1325     Cr1333   2.000       .  S
O1325      C1326   1.264       .  A
C1326      O1327   1.268       .  A
C1326      C1649   1.496       .  S
O1327     Cr1334   1.997       .  S
O1328     Cr1334   1.959       .  S
O1328      C1329   1.258       .  A
C1329      O1330   1.280       .  A
C1329      C1566   1.485       .  S
O1330     Cr1335   2.027       .  S
O1331     Cr1335   2.010       .  S
O1331      C1332   1.264       .  A
C1332      C1526   1.490       .  S
Cr1333     O1336   1.785       .  S
Cr1334     O1336   1.784       .  S
Cr1335     O1336   1.774       .  S
O1337     Cr1355   1.965       .  S
O1337      C1345   1.258       .  A
O1338     Cr1355   1.960       .  S
O1338      C1339   1.254       .  A
C1339      O1340   1.262       .  A
C1339      C1486   1.437       .  S
O1340     Cr1356   1.983       .  S
O1341     Cr1356   2.043       .  S
O1341      C1342   1.267       .  A
C1342      O1343   1.250       .  A
C1342      C1506   1.482       .  S
O1343     Cr1357   1.965       .  S
O1344     Cr1357   2.061       .  S
O1344      C1345   1.280       .  A
C1345      C1516   1.515       .  S
O1346     Cr1355   1.979       .  S
O1346      C1354   1.259       .  A
O1347     Cr1355   1.977       .  S
O1347      C1348   1.263       .  A
C1348      O1349   1.271       .  A
C1348      C1499   1.473       .  S
O1349     Cr1356   2.023       .  S
O1350     Cr1356   1.947       .  S
O1350      C1351   1.256       .  A
C1351      O1352   1.283       .  A
C1351      C1476   1.502       .  S
O1352     Cr1357   2.066       .  S
O1353     Cr1357   1.981       .  S
O1353      C1354   1.258       .  A
C1354      C1609   1.467       .  S
Cr1355     O1358   1.771       .  S
Cr1356     O1358   1.772       .  S
Cr1357     O1358   1.768       .  S
O1359     Cr1377   2.004       .  S
O1359      C1367   1.263       .  A
O1360     Cr1377   1.959       .  S
O1360      C1361   1.255       .  A
C1361      O1362   1.254       .  A
C1361      C1446   1.456       .  S
O1362     Cr1378   1.959       .  S
O1363     Cr1378   2.000       .  S
O1363      C1364   1.264       .  A
C1364      O1365   1.259       .  A
C1364      C1456   1.470       .  S
O1365     Cr1379   1.988       .  S
O1366     Cr1379   2.012       .  S
O1366      C1367   1.268       .  A
C1367      C1519   1.505       .  S
O1368     Cr1377   1.972       .  S
O1368      C1376   1.258       .  A
O1369     Cr1377   2.005       .  S
O1369      C1370   1.264       .  A
C1370      O1371   1.267       .  A
C1370      C1469   1.495       .  S
O1371     Cr1378   1.992       .  S
O1372     Cr1378   1.962       .  S
O1372      C1373   1.258       .  A
C1373      O1374   1.275       .  A
C1373      C1439   1.479       .  S
O1374     Cr1379   2.013       .  S
O1375     Cr1379   2.018       .  S
O1375      C1376   1.269       .  A
C1376      C1556   1.490       .  S
Cr1377     O1380   1.781       .  S
Cr1378     O1380   1.774       .  S
Cr1379     O1380   1.773       .  S
O1381     Cr1399   2.050       .  S
O1381      C1389   1.278       .  A
O1382     Cr1399   1.958       .  S
O1382      C1383   1.247       .  A
C1383      O1384   1.262       .  A
C1383      C1466   1.483       .  S
O1384     Cr1400   2.035       .  S
O1385     Cr1400   1.996       .  S
O1385      C1386   1.269       .  A
C1386      O1387   1.256       .  A
C1386      C1489   1.464       .  S
O1387     Cr1401   1.954       .  S
O1388     Cr1401   1.957       .  S
O1388      C1389   1.255       .  A
C1389      C1429   1.512       .  S
O1390     Cr1399   1.987       .  S
O1390      C1398   1.258       .  A
O1391     Cr1399   2.057       .  S
O1391      C1392   1.284       .  A
C1392      O1393   1.264       .  A
C1392      C1479   1.504       .  S
O1393     Cr1400   1.963       .  S
O1394     Cr1400   2.020       .  S
O1394      C1395   1.269       .  A
C1395      O1396   1.264       .  A
C1395      C1459   1.484       .  S
O1396     Cr1401   1.990       .  S
O1397     Cr1401   1.975       .  S
O1397      C1398   1.257       .  A
C1398      C1539   1.480       .  S
Cr1399     O1402   1.773       .  S
Cr1400     O1402   1.782       .  S
Cr1401     O1402   1.775       .  S
O1403     Cr1421   2.019       .  S
O1403      C1411   1.268       .  A
O1404     Cr1421   1.975       .  S
O1404      C1405   1.256       .  A
C1405      O1406   1.267       .  A
C1405      C1496   1.485       .  S
O1406     Cr1422   2.014       .  S
O1407     Cr1422   1.975       .  S
O1407      C1408   1.258       .  A
C1408      O1409   1.253       .  A
C1408      C1449   1.454       .  S
O1409     Cr1423   1.957       .  S
O1410     Cr1423   2.001       .  S
O1410      C1411   1.262       .  A
C1411      C1426   1.510       .  S
O1412     Cr1421   2.019       .  S
O1412      C1420   1.269       .  A
O1413     Cr1421   2.012       .  S
O1413      C1414   1.277       .  A
C1414      O1415   1.260       .  A
C1414      C1436   1.478       .  S
O1415     Cr1422   1.965       .  S
O1416     Cr1422   2.006       .  S
O1416      C1417   1.267       .  A
C1417      O1418   1.264       .  A
C1417      C1509   1.497       .  S
O1418     Cr1423   2.004       .  S
O1419     Cr1423   1.979       .  S
O1419      C1420   1.259       .  A
C1420      C1529   1.492       .  S
Cr1421     O1424   1.775       .  S
Cr1422     O1424   1.778       .  S
Cr1423     O1424   1.780       .  S
C1425      C1430   1.405       .  A
C1425      F1432   1.358       .  S
C1426      C1427   1.419       .  A
C1428      C1429   1.409       .  A
C1430      F1431   1.358       .  S
C1435      C1436   1.415       .  A
C1435      C1440   1.401       .  A
C1435      F1442   1.358       .  S
C1436      C1437   1.401       .  A
C1437      C1438   1.399       .  A
C1437      F1444   1.358       .  S
C1438      C1439   1.415       .  A
C1438      F1443   1.359       .  S
C1439      C1440   1.400       .  A
C1440      F1441   1.358       .  S
C1445      C1446   1.400   1_554  A
C1445      F1452   1.358       .  S
C1446      C1447   1.412       .  A
C1447      F1454   1.359       .  S
C1448      C1449   1.405       .  A
C1448      F1453   1.359       .  S
C1449      C1450   1.402       .  A
C1450      F1451   1.359       .  S
C1455      C1456   1.411       .  A
C1455      C1460   1.408       .  A
C1455      F1462   1.358       .  S
C1456      C1457   1.397       .  A
C1457      C1458   1.395       .  A
C1457      F1464   1.359       .  S
C1458      C1459   1.412       .  A
C1458      F1463   1.355       .  S
C1459      C1460   1.404       .  A
C1460      F1461   1.357       .  S
C1465      C1466   1.403       .  A
C1465      C1470   1.410   1_655  A
C1465      F1472   1.357       .  S
C1466      C1467   1.407       .  A
C1467      F1474   1.358       .  S
C1468      C1469   1.407       .  A
C1468      F1473   1.358       .  S
C1470      F1471   1.358       .  S
C1475      C1476   1.405       .  A
C1475      C1480   1.406       .  A
C1475      F1482   1.357       .  S
C1476      C1477   1.420       .  A
C1477      C1478   1.403       .  A
C1477      F1484   1.359       .  S
C1478      C1479   1.407       .  A
C1478      F1483   1.358       .  S
C1479      C1480   1.419       .  A
C1480      F1481   1.357       .  S
C1485      C1486   1.396       .  A
C1485      F1492   1.359       .  S
C1486      C1487   1.407       .  A
C1487      F1494   1.358       .  S
C1488      C1489   1.416   1_554  A
C1488      F1493   1.358   1_554  S
C1489      C1490   1.395       .  A
C1490      F1491   1.358       .  S
C1495      C1496   1.415       .  A
C1495      F1502   1.359       .  S
C1497      C1498   1.406       .  A
C1497      F1504   1.357       .  S
C1498      C1499   1.411       .  A
C1498      F1503   1.358       .  S
C1499      C1500   1.397       .  A
C1500      F1501   1.358       .  S
C1505      C1506   1.402       .  A
C1505      C1510   1.404       .  A
C1505      F1512   1.358       .  S
C1506      C1507   1.409       .  A
C1507      C1508   1.407       .  A
C1507      F1514   1.357       .  S
C1508      C1509   1.408       .  A
C1508      F1513   1.357       .  S
C1509      C1510   1.415       .  A
C1510      F1511   1.358       .  S
C1515      C1516   1.419       .  A
C1516      C1517   1.411       .  A
C1517      C1518   1.415       .  A
C1517      F1524   1.357       .  S
C1518      F1523   1.357       .  S
C1519      C1520   1.404       .  A
C1520      F1521   1.358       .  S
C1525      C1526   1.409       .  A
C1525      C1530   1.402       .  A
C1525      F1532   1.358       .  S
C1526      C1527   1.409       .  A
C1527      C1528   1.403       .  A
C1527      F1534   1.358       .  S
C1528      C1529   1.411       .  A
C1528      F1533   1.358       .  S
C1529      C1530   1.409       .  A
C1530      F1531   1.358       .  S
C1535      C1536   1.405       .  A
C1535      C1540   1.403       .  A
C1535      F1542   1.357       .  S
C1536      C1537   1.406       .  A
C1537      C1538   1.394       .  A
C1537      F1544   1.359       .  S
C1538      C1539   1.407       .  A
C1538      F1543   1.359       .  S
C1539      C1540   1.409       .  A
C1540      F1541   1.357       .  S
C1545      C1550   1.405       .  A
C1545      F1552   1.356       .  S
C1546      C1547   1.408       .  A
C1548      C1549   1.420       .  A
C1550      F1551   1.358       .  S
C1555      C1556   1.408       .  A
C1555      C1560   1.400   1_545  A
C1555      F1562   1.358       .  S
C1556      C1557   1.412       .  A
C1557      C1558   1.402   1_545  A
C1557      F1564   1.358       .  S
C1558      C1559   1.409       .  A
C1558      F1563   1.358       .  S
C1559      C1560   1.410       .  A
C1560      F1561   1.358       .  S
C1565      C1566   1.419       .  A
C1565      C1570   1.401       .  A
C1565      F1572   1.358       .  S
C1566      C1567   1.399       .  A
C1567      C1568   1.402       .  A
C1567      F1574   1.358       .  S
C1568      C1569   1.418       .  A
C1568      F1573   1.359       .  S
C1569      C1570   1.398       .  A
C1570      F1571   1.358       .  S
C1575      C1576   1.406       .  A
C1575      F1582   1.358       .  S
C1576      C1577   1.403       .  A
C1577      F1584   1.359       .  S
C1578      C1579   1.401       .  A
C1578      F1583   1.358       .  S
C1579      C1580   1.410       .  A
C1580      F1581   1.359       .  S
C1585      C1586   1.395       .  A
C1585      C1590   1.395       .  A
C1585      F1592   1.358       .  S
C1586      C1587   1.411       .  A
C1587      C1588   1.405       .  A
C1587      F1594   1.358       .  S
C1588      C1589   1.403       .  A
C1588      F1593   1.357       .  S
C1589      C1590   1.415       .  A
C1590      F1591   1.359       .  S
C1595      C1596   1.403       .  A
C1595      C1600   1.410   1_655  A
C1595      F1602   1.357       .  S
C1596      C1597   1.410       .  A
C1597      F1604   1.359       .  S
C1598      C1599   1.408       .  A
C1598      F1603   1.358       .  S
C1605      C1606   1.405       .  A
C1605      C1610   1.395   1_565  A
C1605      F1612   1.359       .  S
C1606      C1607   1.406       .  A
C1607      C1608   1.399   1_565  A
C1607      F1614   1.358       .  S
C1608      C1609   1.404       .  A
C1608      F1613   1.358       .  S
C1609      C1610   1.405       .  A
C1610      F1611   1.359       .  S
C1615      C1616   1.407       .  A
C1615      C1620   1.408       .  A
C1615      F1622   1.358       .  S
C1616      C1617   1.420       .  A
C1617      C1618   1.406       .  A
C1617      F1624   1.358       .  S
C1618      C1619   1.406       .  A
C1618      F1623   1.357       .  S
C1619      C1620   1.421       .  A
C1620      F1621   1.358       .  S
C1625      C1626   1.415       .  A
C1625      F1632   1.358       .  S
C1626      C1627   1.395       .  A
C1627      F1634   1.358       .  S
C1628      C1629   1.413       .  A
C1628      F1633   1.358       .  S
C1629      C1630   1.394       .  A
C1630      F1631   1.358       .  S
C1635      C1636   1.413       .  A
C1635      C1640   1.406       .  A
C1635      F1642   1.357       .  S
C1636      C1637   1.396       .  A
C1637      F1644   1.358       .  S
C1638      C1639   1.416       .  A
C1638      F1643   1.359       .  S
C1640      F1641   1.358       .  S
C1645      C1646   1.402       .  A
C1645      C1650   1.409       .  A
C1645      F1652   1.357       .  S
C1646      C1647   1.411       .  A
C1647      C1648   1.399       .  A
C1647      F1654   1.359       .  S
C1648      C1649   1.407       .  A
C1648      F1653   1.358       .  S
C1649      C1650   1.418       .  A
C1650      F1651   1.357       .  S
C1655      C1656   1.405       .  A
C1655      F1662   1.358       .  S
C1657      C1658   1.413       .  A
C1657      F1664   1.357       .  S
C1658      C1659   1.408       .  A
C1658      F1663   1.357       .  S
C1659      C1660   1.421       .  A
