geometry optimzed in LAMMPS
_audit_creation_date              2020-12-01 
_audit_creation_method            'lammps2cif' 
_symmetry_space_group_name_H-M    'P1' 
_symmetry_Int_Tables_number       1 
_symmetry_cell_setting            triclinic 
loop_ 
_symmetry_equiv_pos_as_xyz 
  x,y,z 
_cell_length_a                    27.02352751 
_cell_length_b                    35.933940004912984 
_cell_length_c                    33.75370310647961 
_cell_angle_alpha                 89.77453998895265 
_cell_angle_beta                  89.98877852433645 
_cell_angle_gamma                 89.72674091355913 
loop_ 
_atom_site_label 
_atom_site_type_symbol 
_atom_site_fract_x 
_atom_site_fract_y 
_atom_site_fract_z 
_atom_site_charge 
O1          O  0.75454966  0.12836138  0.63039865    -0.81000
C2          C  0.63127206  0.22302209  0.55196150     0.98400
O3          O  0.64835186  0.19055436  0.54710285    -0.70100
O4          O  0.71719396  0.14102623  0.55570956    -0.73700
Al5        Al  0.66260018  0.15352657  0.58566110     1.49000
C6          C  0.75749779  0.15639828  0.54821826     0.93600
O7          O  0.77510608  0.23307257  0.62622111    -0.79900
O8          O  0.68646140  0.21946186  0.68985177    -0.73500
Al9        Al  0.75807699  0.18146099  0.62669726     1.90100
O10         O  0.70321164  0.26078018  0.62252664    -0.72500
O11         O  0.60415757  0.19521499  0.65593691    -0.72400
O12         O  0.62581956  0.23629068  0.58666139    -0.78000
O13         O  0.59848708  0.15686965  0.60664640    -0.76200
O14         O  0.69282434  0.18660957  0.61712997    -1.12400
O15         O  0.67631135  0.11304858  0.62057378    -0.71600
C16         C  0.72028060  0.10439772  0.63011016     0.99200
C17         C  0.74936347  0.26209965  0.62298434     0.95600
Al18       Al  0.65795237  0.22439364  0.63714958     1.55600
O19         O  0.77529446  0.18000722  0.57161593    -0.76200
C20         C  0.57952072  0.17252223  0.63591115     0.99700
C21         C  0.72354342  0.20190924  0.70384714     0.94600
O22         O  0.75119354  0.18266983  0.68192245    -0.81500
O23         O  0.75957940  0.04635481  0.32629206    -0.81000
C24         C  0.88662688  0.02237632  0.44972594     0.98400
O25         O  0.86435436  0.00239043  0.42430045    -0.70100
O26         O  0.79125399  0.98834875  0.37402758    -0.73700
Al27       Al  0.85058541  0.01551068  0.36968091     1.49000
C28         C  0.75147719  0.99345498  0.39247351     0.93600
O29         O  0.75347419  0.09544572  0.42472288    -0.79900
O30         O  0.84099743  0.13488960  0.38296498    -0.73500
Al31       Al  0.76307122  0.06968176  0.37696076     1.90100
O32         O  0.82676883  0.10008451  0.45190931    -0.72500
O33         O  0.91773903  0.08995812  0.36853729    -0.72400
O34         O  0.90003452  0.05512142  0.44100527    -0.78000
O35         O  0.91777201  0.02983019  0.36145631    -0.76200
O36         O  0.82714707  0.05954301  0.38486458    -1.12400
O37         O  0.83546152  0.02612193  0.31436943    -0.71600
C38         C  0.79191305  0.03448777  0.30233142     0.99200
C39         C  0.78093749  0.10512564  0.45277548     0.95600
Al40       Al  0.86788330  0.09204266  0.40850141     1.55600
O41         O  0.73994608  0.02565284  0.40399269    -0.76200
C42         C  0.94022806  0.06033418  0.35992979     0.99700
C43         C  0.80411307  0.14081426  0.36082734     0.94600
O44         O  0.77636737  0.11472346  0.34978326    -0.81500
O45         O  0.27169792  0.20094255  0.68350067    -0.81000
C46         C  0.38688691  0.25037396  0.56084031     0.98400
O47         O  0.36545009  0.26480890  0.59048024    -0.70100
O48         O  0.29408909  0.26809572  0.64389490    -0.73700
Al49       Al  0.35553352  0.24235887  0.64158021     1.49000
C50         C  0.25302427  0.26371220  0.62704557     0.93600
O51         O  0.25774454  0.16791798  0.57876824    -0.79900
O52         O  0.35161474  0.12660045  0.60452970    -0.73500
Al53       Al  0.27123097  0.18617263  0.62955101     1.90100
O54         O  0.32681001  0.17296026  0.54509197    -0.72500
O55         O  0.42442541  0.17037762  0.62514235    -0.72400
O56         O  0.40078312  0.21672391  0.56166342    -0.78000
O57         O  0.42318779  0.22791170  0.64538914    -0.76200
O58         O  0.33304463  0.20060000  0.61941676    -1.12400
O59         O  0.34610889  0.22337037  0.69441819    -0.71600
C60         C  0.30488855  0.21154530  0.70716270     0.99200
C61         C  0.28167240  0.16462458  0.54718130     0.95600
Al62       Al  0.37267339  0.17418887  0.58729687     1.55600
O63         O  0.24200021  0.23248472  0.61273832    -0.76200
C64         C  0.44526508  0.19727222  0.64193120     0.99700
C65         C  0.31918045  0.11536659  0.62831871     0.94600
O66         O  0.29150226  0.13802872  0.64665492    -0.81500
O67         O  0.23542112  0.12423597  0.35540904    -0.81000
C68         C  0.13363951  0.02410534  0.45499002     0.98400
O69         O  0.12718454  0.05901763  0.45461842    -0.70100
O70         O  0.20813977  0.09702394  0.46348445    -0.73700
Al71       Al  0.15845451  0.09812048  0.42453566     1.49000
C72         C  0.25262309  0.10576421  0.45800715     0.93600
O73         O  0.27855427  0.03156167  0.39842059    -0.79900
O74         O  0.17114423  0.04208451  0.31862543    -0.73500
Al75       Al  0.25350179  0.07751016  0.37752469     1.90100
O76         O  0.22126103  0.99691876  0.37130555    -0.72500
O77         O  0.09607178  0.04689640  0.37026672    -0.72400
O78         O  0.15114973  0.00757484  0.42501922    -0.78000
O79         O  0.10319850  0.10436198  0.39020610    -0.76200
O80         O  0.19119346  0.06764608  0.39175706    -1.12400
O81         O  0.18491349  0.14320854  0.40246958    -0.71600
C82         C  0.21391219  0.15013748  0.37399409     0.99200
C83         C  0.26401890  0.00033108  0.38611015     0.95600
Al84       Al  0.16212026  0.02689739  0.37293813     1.55600
O85         O  0.27315583  0.10076994  0.42515574    -0.76200
C86         C  0.07772566  0.07895021  0.37497487     0.99700
C87         C  0.21341983  0.04839047  0.30389902     0.94600
O88         O  0.24917232  0.05725057  0.32579885    -0.81500
O89         O  0.24558421  0.38932942  0.63303752    -0.81000
C90         C  0.12021274  0.47996303  0.55121121     0.98400
O91         O  0.13852589  0.44778206  0.54698862    -0.70100
O92         O  0.20962286  0.39984912  0.55644330    -0.73700
Al93       Al  0.15368298  0.41141204  0.58595580     1.49000
C94         C  0.25062830  0.41477336  0.55020784     0.93600
O95         O  0.26160435  0.49476190  0.62607829    -0.79900
O96         O  0.17185355  0.47965414  0.68908947    -0.73500
Al97       Al  0.24689407  0.44240514  0.62769981     1.90100
O98         O  0.18839665  0.52029623  0.62148745    -0.72500
O99         O  0.09188800  0.45285009  0.65530515    -0.72400
O100        O  0.11274082  0.49328009  0.58557933    -0.78000
O101        O  0.08909368  0.41334499  0.60688283    -0.76200
O102        O  0.18169555  0.44571402  0.61719405    -1.12400
O103        O  0.16872355  0.37144830  0.62150400    -0.71600
C104        C  0.21246836  0.36446610  0.63305118     0.99200
C105        C  0.23444238  0.52308742  0.62225504     0.95600
Al106      Al  0.14456644  0.48298139  0.63627506     1.55600
O107        O  0.26619425  0.43977960  0.57301996    -0.76200
C108        C  0.06908086  0.42863159  0.63603596     0.99700
C109        C  0.20894804  0.46290153  0.70383121     0.94600
O110        O  0.23821407  0.44442597  0.68256043    -0.81500
O111        O  0.26764209  0.30892231  0.32788576    -0.81000
C112        C  0.38861216  0.27443873  0.45019429     0.98400
O113        O  0.36780137  0.25668620  0.42231448    -0.70100
O114        O  0.29634719  0.24603698  0.36904008    -0.73700
Al115      Al  0.35581387  0.27366139  0.36967952     1.49000
C116        C  0.25649771  0.24947411  0.38758948     0.93600
O117        O  0.25769756  0.34662826  0.43185836    -0.79900
O118        O  0.34953456  0.39265414  0.38753284    -0.73500
Al119      Al  0.26845850  0.32673931  0.38127081     1.90100
O120        O  0.33101229  0.35782022  0.45640883    -0.72500
O121        O  0.42633985  0.34543296  0.37525272    -0.72400
O122        O  0.40054295  0.30853678  0.44636638    -0.78000
O123        O  0.42255115  0.28617607  0.36404352    -0.76200
O124        O  0.33256890  0.31685448  0.38824926    -1.12400
O125        O  0.34399292  0.28907075  0.31620295    -0.71600
C126        C  0.30134232  0.29883913  0.30399746     0.99200
C127        C  0.28482971  0.35834980  0.45917735     0.95600
Al128      Al  0.37346481  0.34814697  0.41366250     1.55600
O129        O  0.24563703  0.28027126  0.40283982    -0.76200
C130        C  0.44649223  0.31570941  0.36368674     0.99700
C131        C  0.31028380  0.39959134  0.36820770     0.94600
O132        O  0.27981518  0.37439960  0.35995578    -0.81500
O133        O  0.76068793  0.43347759  0.68614600    -0.81000
C134        C  0.87496180  0.46808548  0.55140969     0.98400
O135        O  0.87116711  0.49014640  0.58095966    -0.70100
O136        O  0.78769169  0.50967953  0.61416216    -0.73700
Al137      Al  0.84152807  0.48275607  0.63425049     1.49000
C138        C  0.74216801  0.50497802  0.61793978     0.93600
O139        O  0.74314565  0.41636742  0.57714012    -0.79900
O140        O  0.84939223  0.36873162  0.64218158    -0.73500
Al141      Al  0.75520699  0.42544654  0.63167373     1.90100
O142        O  0.80887327  0.38098895  0.56930717    -0.72500
O143        O  0.91823443  0.41757699  0.62358048    -0.72400
O144        O  0.86976108  0.43357404  0.55579165    -0.78000
O145        O  0.90208864  0.46700758  0.65781801    -0.76200
O146        O  0.81861226  0.43765309  0.62242252    -1.12400
O147        O  0.81275975  0.48101892  0.68791637    -0.71600
C148        C  0.78167179  0.45933922  0.70483417     0.99200
C149        C  0.76679267  0.39182734  0.55818580     0.95600
Al150      Al  0.85836331  0.40351880  0.60005843     1.55600
O151        O  0.72524249  0.47336199  0.62539843    -0.76200
C152        C  0.93189892  0.44228688  0.64708146     0.99700
C153        C  0.80716262  0.35436962  0.64594389     0.94600
O154        O  0.76848683  0.37382903  0.64100026    -0.81500
O155        O  0.74670761  0.36699653  0.36484901    -0.81000
C156        C  0.63517152  0.25999039  0.44443830     0.98400
O157        O  0.62582360  0.29452630  0.44699453    -0.70100
O158        O  0.70609871  0.32720538  0.46593670    -0.73700
Al159      Al  0.66220147  0.33611241  0.42489544     1.49000
C160        C  0.75082455  0.33580090  0.46535757     0.93600
O161        O  0.78045589  0.26918452  0.39729526    -0.79900
O162        O  0.68172717  0.29383135  0.31370133    -0.73500
Al163      Al  0.76040470  0.31803796  0.38168401     1.90100
O164        O  0.72525600  0.24084734  0.36060341    -0.72500
O165        O  0.60164458  0.29430821  0.36277206    -0.72400
O166        O  0.65360900  0.24675463  0.41303792    -0.78000
O167        O  0.61275063  0.34930401  0.38827959    -0.76200
O168        O  0.69662163  0.30891892  0.39030382    -1.12400
O169        O  0.69300344  0.38274649  0.41100306    -0.71600
C170        C  0.72311789  0.39148536  0.38384271     0.99200
C171        C  0.76621125  0.24069403  0.37874974     0.95600
Al172      Al  0.66743170  0.27203501  0.36453790     1.55600
O173        O  0.77555578  0.33485705  0.43382234    -0.76200
C174        C  0.58559216  0.32663661  0.37069391     0.99700
C175        C  0.72601883  0.29922275  0.30241212     0.94600
O176        O  0.76014663  0.30428145  0.32728507    -0.81500
O177        O  0.77091541  0.13199525  0.87339413    -0.81000
C178        C  0.89215766  0.22589826  0.95143668     0.98400
O179        O  0.87682640  0.19299828  0.95668326    -0.70100
O180        O  0.81035584  0.14112804  0.94961470    -0.73700
Al181      Al  0.86309645  0.15613338  0.91857006     1.49000
C182        C  0.76902238  0.15455675  0.95772458     0.93600
O183        O  0.74788785  0.23635005  0.88598135    -0.79900
O184        O  0.83671105  0.21956738  0.81364560    -0.73500
Al185      Al  0.76524564  0.18470481  0.88092052     1.90100
O186        O  0.81942008  0.26337191  0.87835286    -0.72500
O187        O  0.91994696  0.19787592  0.84761448    -0.72400
O188        O  0.89642635  0.23957242  0.91656207    -0.78000
O189        O  0.92672300  0.16016534  0.89737212    -0.76200
O190        O  0.83100232  0.18938817  0.88790038    -1.12400
O191        O  0.84981074  0.11674255  0.88315743    -0.71600
C192        C  0.80631166  0.10861076  0.87225525     0.99200
C193        C  0.77387367  0.26526289  0.88408747     0.95600
Al194      Al  0.86508281  0.22660795  0.86592805     1.55600
O195        O  0.75049081  0.17953874  0.93614876    -0.76200
C196        C  0.94508287  0.17532792  0.86763049     0.99700
C197        C  0.79685669  0.20472074  0.80170921     0.94600
O198        O  0.76764207  0.18934738  0.82558252    -0.81500
O199        O  0.74972866  0.04480773  0.18045514    -0.81000
C200        C  0.62321622  0.01935381  0.05773521     0.98400
O201        O  0.63991166  0.00147727  0.08733729    -0.70100
O202        O  0.71153838  0.98782766  0.13791780    -0.73700
Al203      Al  0.65529045  0.01944325  0.13936210     1.49000
C204        C  0.75202278  0.98911865  0.11940446     0.93600
O205        O  0.76490797  0.08888965  0.07909180    -0.79900
O206        O  0.68221200  0.13480854  0.11149296    -0.73500
Al207      Al  0.74963059  0.06579615  0.12826775     1.90100
O208        O  0.69470867  0.09121626  0.04712586    -0.72500
O209        O  0.60043661  0.09864026  0.12744342    -0.72400
O210        O  0.61560710  0.05417102  0.05997157    -0.78000
O211        O  0.59007560  0.04090845  0.14520735    -0.76200
O212        O  0.68517616  0.05930362  0.11906766    -1.12400
O213        O  0.67127038  0.03367234  0.19332001    -0.71600
C214        C  0.71582623  0.03764265  0.20502604     0.99200
C215        C  0.74034658  0.09640344  0.04849309     0.95600
Al216      Al  0.65090467  0.09179811  0.08951561     1.55600
O217        O  0.76749952  0.01936071  0.10513764    -0.76200
C218        C  0.57349451  0.07360748  0.14152760     0.99700
C219        C  0.71582893  0.13955373  0.13708536     0.94600
O220        O  0.73900120  0.11245667  0.15213142    -0.81500
O221        O  0.25659021  0.18889891  0.82807419    -0.81000
C222        C  0.13253600  0.23776625  0.95017026     0.98400
O223        O  0.13539213  0.25357857  0.91640864    -0.70100
O224        O  0.21919732  0.27009546  0.88298207    -0.73700
Al225      Al  0.16768320  0.23911410  0.86731863     1.49000
C226        C  0.26487043  0.26599448  0.88718163     0.93600
O227        O  0.26583308  0.18058043  0.93977391    -0.79900
O228        O  0.16263930  0.12634517  0.88022532    -0.73500
Al229      Al  0.25657203  0.18519048  0.88400507     1.90100
O230        O  0.20039131  0.14682525  0.95090507    -0.72500
O231        O  0.09242457  0.17695523  0.88964854    -0.72400
O232        O  0.13986918  0.20321668  0.95416889    -0.78000
O233        O  0.10974117  0.21822450  0.84503851    -0.76200
O234        O  0.19221482  0.19718380  0.88854829    -1.12400
O235        O  0.19793106  0.23071638  0.81686507    -0.71600
C236        C  0.23300155  0.21014491  0.80485190     0.99200
C237        C  0.24272552  0.15745349  0.96080239     0.95600
Al238      Al  0.15221962  0.16646521  0.91594360     1.55600
O239        O  0.28380159  0.23407733  0.88824119    -0.76200
C240        C  0.07980879  0.19600989  0.86023425     0.99700
C241        C  0.20552302  0.11270435  0.87623954     0.94600
O242        O  0.24371821  0.13299036  0.87887798    -0.81500
O243        O  0.26879027  0.11895195  0.13377509    -0.81000
C244        C  0.38640760  0.01702083  0.05998849     0.98400
O245        O  0.37482323  0.05083255  0.05453839    -0.70100
O246        O  0.31198031  0.10640141  0.05934715    -0.73700
Al247      Al  0.36151100  0.08813183  0.09336854     1.49000
C248        C  0.26941255  0.09563444  0.05036446     0.93600
O249        O  0.23371750  0.01688997  0.12319864    -0.79900
O250        O  0.31609222  0.01958437  0.19183828    -0.73500
Al251      Al  0.25827717  0.06688725  0.12730781     1.90100
O252        O  0.30147018  0.98372885  0.12106954    -0.72500
O253        O  0.40417356  0.03867153  0.16657403    -0.72400
O254        O  0.38658037  0.00300933  0.09454686    -0.78000
O255        O  0.42258283  0.07802061  0.11984343    -0.76200
O256        O  0.32312949  0.05673402  0.12142601    -1.12400
O257        O  0.34920446  0.12917198  0.12847407    -0.71600
C258        C  0.30564112  0.14038251  0.13647836     0.99200
C259        C  0.25539474  0.98613513  0.11895439     0.95600
Al260      Al  0.34963265  0.01517678  0.14182046     1.55600
O261        O  0.24719931  0.07221945  0.07170957    -0.76200
C262        C  0.43511923  0.05922302  0.14973817     0.99700
C263        C  0.28189372  0.04029512  0.20502312     0.94600
O264        O  0.25946405  0.06300111  0.18287672    -0.81500
O265        O  0.26589297  0.39159739  0.86127530    -0.81000
C266        C  0.37232368  0.49909078  0.94445684     0.98400
O267        O  0.38413526  0.46477786  0.94410164    -0.70100
O268        O  0.31358163  0.41807601  0.96088070    -0.73700
Al269      Al  0.35526720  0.42266785  0.91671261     1.49000
C270        C  0.26793751  0.41210949  0.96215498     0.93600
O271        O  0.22526614  0.48511805  0.90197356    -0.79900
O272        O  0.32162075  0.47432169  0.81363356    -0.73500
Al273      Al  0.25004456  0.43885632  0.88166869     1.90100
O274        O  0.27388812  0.51944328  0.86572928    -0.72500
O275        O  0.40236725  0.47922188  0.85884829    -0.72400
O276        O  0.34916751  0.51390245  0.91573084    -0.78000
O277        O  0.40563638  0.42122223  0.87703031    -0.76200
O278        O  0.31348650  0.45107042  0.88820036    -1.12400
O279        O  0.33164762  0.37601263  0.89635757    -0.71600
C280        C  0.29588054  0.36740885  0.87404068     0.99200
C281        C  0.23468005  0.51574161  0.88542839     0.95600
Al282      Al  0.33506211  0.49290550  0.86548136     1.55600
O283        O  0.24055599  0.41867196  0.93290332    -0.76200
C284        C  0.42582286  0.44921072  0.86156485     0.99700
C285        C  0.27875866  0.46453682  0.80260211     0.94600
O286        O  0.24590101  0.45578941  0.82765814    -0.81500
O287        O  0.25419905  0.31723935  0.18397097    -0.81000
C288        C  0.13590900  0.26787918  0.05873303     0.98400
O289        O  0.14115319  0.25138622  0.09190086    -0.70100
O290        O  0.22402315  0.23582495  0.12850419    -0.73700
Al291      Al  0.16978034  0.26596587  0.14197543     1.49000
C292        C  0.26957748  0.24093610  0.12506236     0.93600
O293        O  0.26916175  0.32737103  0.07316470    -0.79900
O294        O  0.16184614  0.38028566  0.12960077    -0.73500
Al295      Al  0.25702973  0.32161356  0.12838305     1.90100
O296        O  0.20188699  0.35890642  0.06002518    -0.72500
O297        O  0.09224701  0.32836863  0.11954466    -0.72400
O298        O  0.14142553  0.30265573  0.05537087    -0.78000
O299        O  0.10908815  0.28461517  0.16173131    -0.76200
O300        O  0.19318336  0.30876200  0.12189400    -1.12400
O301        O  0.19633674  0.27484350  0.19361978    -0.71600
C302        C  0.23021359  0.29580164  0.20652447     0.99200
C303        C  0.24572431  0.35016887  0.05178740     0.95600
Al304      Al  0.15290707  0.33942556  0.09404717     1.55600
O305        O  0.28660986  0.27330345  0.12425880    -0.76200
C306        C  0.07870832  0.30671233  0.14656312     0.99700
C307        C  0.20446339  0.39404321  0.13433717     0.94600
O308        O  0.24268004  0.37349090  0.13354670    -0.81500
O309        O  0.73874436  0.43639048  0.82598468    -0.81000
C310        C  0.62088458  0.47725611  0.95513426     0.98400
O311        O  0.62003680  0.49278622  0.92105859    -0.70100
O312        O  0.69739559  0.51236007  0.87896942    -0.73700
Al313      Al  0.64648103  0.47819355  0.86940373     1.49000
C314        C  0.74308763  0.51044216  0.88493865     0.93600
O315        O  0.75914482  0.42402832  0.93582754    -0.79900
O316        O  0.65528260  0.36547779  0.88543318    -0.73500
Al317      Al  0.74282447  0.43015520  0.88155549     1.90100
O318        O  0.69618778  0.39000724  0.95206494    -0.72500
O319        O  0.58127295  0.41123160  0.89878974    -0.72400
O320        O  0.63117147  0.44303036  0.95890899    -0.78000
O321        O  0.58663644  0.45380788  0.85362416    -0.76200
O322        O  0.67773196  0.43828607  0.88994989    -1.12400
O323        O  0.67086611  0.46962233  0.81629085    -0.71600
C324        C  0.70985658  0.45400541  0.80325826     0.99200
C325        C  0.73930265  0.40068005  0.95829582     0.95600
Al326      Al  0.64400152  0.40593491  0.92059698     1.55600
O327        O  0.76452132  0.47965315  0.88769832    -0.76200
C328        C  0.56213942  0.42925041  0.87127030     0.99700
C329        C  0.69854642  0.35482937  0.87658907     0.94600
O330        O  0.73422560  0.37767544  0.87484392    -0.81500
O331        O  0.77855223  0.36345079  0.14819803    -0.81000
C332        C  0.88725553  0.26039388  0.05957147     0.98400
O333        O  0.89506440  0.29518141  0.05801868    -0.70100
O334        O  0.81614245  0.33326066  0.04358017    -0.73700
Al335      Al  0.86181899  0.33601372  0.08467082     1.49000
C336        C  0.77100483  0.34065267  0.04612345     0.93600
O337        O  0.74325636  0.26927246  0.10827867    -0.79900
O338        O  0.84309538  0.28673814  0.19314859    -0.73500
Al339      Al  0.76407446  0.31620487  0.12775411     1.90100
O340        O  0.79789190  0.23741372  0.14270619    -0.72500
O341        O  0.92250909  0.28786144  0.14370656    -0.72400
O342        O  0.86978772  0.24553777  0.09061713    -0.78000
O343        O  0.91344913  0.34424584  0.12080017    -0.76200
O344        O  0.82756621  0.30681814  0.11757173    -1.12400
O345        O  0.83328882  0.38179573  0.10386448    -0.71600
C346        C  0.80268386  0.38887822  0.13127005     0.99200
C347        C  0.75717769  0.23923326  0.12426159     0.95600
Al348      Al  0.85633030  0.26770008  0.14072382     1.55600
O349        O  0.74783103  0.33678766  0.07798617    -0.76200
C350        C  0.93975811  0.31988577  0.13710265     0.99700
C351        C  0.79934016  0.29343655  0.20511155     0.94600
O352        O  0.76477103  0.29868963  0.18069067    -0.81500
C353        C  0.76657880  0.38376171  0.99102015    -0.15600
C354        C  0.74548088  0.35656280  0.01246510    -0.30800
H355        H  0.80401667  0.39296684  0.99727910     0.13400
H356        H  0.70723330  0.34851098  0.00777679     0.14000
C357        C  0.02569793  0.30402790  0.15738298    -0.15600
C358        C  0.99251810  0.32873614  0.14351256    -0.30800
H359        H  0.01308826  0.27847415  0.17133183     0.13400
H360        H  0.00570879  0.35450804  0.13034058     0.14000
C361        C  0.47876418  0.44902437  0.85027836    -0.15600
C362        C  0.50939048  0.42215280  0.86304258    -0.30800
H363        H  0.49421184  0.47479160  0.83883601     0.13400
H364        H  0.49371168  0.39729094  0.87643433     0.14000
C365        C  0.24604707  0.39533442  0.99744558    -0.15600
C366        C  0.26983851  0.36853593  0.01802713    -0.30800
H367        H  0.20783021  0.40240754  0.00416842     0.13400
H368        H  0.30730866  0.36034979  0.01010322     0.14000
C369        C  0.39541277  0.99192080  0.02573131    -0.15600
C370        C  0.38270287  0.52255746  0.97951781    -0.30800
H371        H  0.39480695  0.96219034  0.03170961     0.13400
H372        H  0.37279404  0.55179153  0.97667152     0.14000
C373        C  0.25212428  0.44851248  0.11659558    -0.15600
C374        C  0.21187572  0.43485748  0.13520234    -0.30800
H375        H  0.27717678  0.42922791  0.10186573     0.13400
H376        H  0.18561620  0.45304953  0.15000086     0.14000
C377        C  0.29439385  0.17907930  0.14757765    -0.15600
C378        C  0.30255417  0.20795832  0.12290187    -0.30800
H379        H  0.26672601  0.18249623  0.17071159     0.13400
H380        H  0.32863972  0.20554686  0.09856019     0.14000
C381        C  0.21263756  0.07211641  0.87408247    -0.15600
C382        C  0.25011326  0.05724449  0.89506930    -0.30800
H383        H  0.18842319  0.05498132  0.85618339     0.13400
H384        H  0.27348955  0.07541689  0.91263942     0.14000
C385        C  0.28445238  0.32839317  0.86496217    -0.15600
C386        C  0.29557086  0.29978267  0.88932273    -0.30800
H387        H  0.25715082  0.32403005  0.84175929     0.13400
H388        H  0.32257080  0.30264668  0.91291706     0.14000
C389        C  0.12671389  0.24543032  0.02283245    -0.15600
C390        C  0.12462714  0.26057597  0.98611592    -0.30800
H391        H  0.12776307  0.21536247  0.02630541     0.13400
H392        H  0.12382136  0.29063279  0.98254036     0.14000
C393        C  0.26578985  0.14122246  0.99618734    -0.15600
C394        C  0.24545711  0.11198155  0.01535592    -0.30800
H395        H  0.30083910  0.15275292  0.00589704     0.13400
H396        H  0.21040114  0.10043354  0.00570172     0.14000
C397        C  0.73302169  0.17710523  0.14658994    -0.15600
C398        C  0.72619357  0.20580561  0.12149814    -0.30800
H399        H  0.75905062  0.17971735  0.17097480     0.13400
H400        H  0.70040665  0.20365959  0.09692664     0.14000
C401        C  0.79050662  0.42722905  0.14216437    -0.15600
C402        C  0.79494446  0.45612927  0.11697257    -0.30800
H403        H  0.76852174  0.43052928  0.16894001     0.13400
H404        H  0.80524187  0.95129290  0.09011067     0.14000
C405        C  0.61320600  0.50002400  0.99159389    -0.15600
C406        C  0.61557922  0.99918106  0.01953085    -0.30800
H407        H  0.62776897  0.04563219  0.98252874     0.13400
H408        H  0.62578961  0.45550646  0.03123664     0.14000
C409        C  0.52060640  0.08245538  0.14823959    -0.15600
C410        C  0.48781667  0.05748626  0.16180910    -0.30800
H411        H  0.50693247  0.10820241  0.13512407     0.13400
H412        H  0.50086817  0.03214150  0.17611580     0.14000
C413        C  0.89509745  0.23640450  0.02420108    -0.15600
C414        C  0.90170172  0.24959583  0.98689945    -0.30800
H415        H  0.88802170  0.20690419  0.02837880     0.13400
H416        H  0.90797578  0.27911975  0.98221683     0.14000
C417        C  0.75335019  0.30279601  0.88854598    -0.15600
C418        C  0.70993227  0.31470884  0.87363452    -0.30800
H419        H  0.77869171  0.32305527  0.90105849     0.13400
H420        H  0.68323645  0.29538126  0.86145484     0.14000
C421        C  0.79943943  0.04216564  0.88609012    -0.15600
C422        C  0.79396193  0.07080151  0.86059497    -0.30800
H423        H  0.82379841  0.04427888  0.91157282     0.13400
H424        H  0.76826894  0.06838001  0.83596393     0.14000
C425        C  0.99771210  0.16810772  0.85979776    -0.15600
C426        C  0.02804442  0.19471964  0.84621901    -0.30800
H427        H  0.01365718  0.14418426  0.87506357     0.13400
H428        H  0.01299590  0.21916119  0.83137990     0.14000
C429        C  0.74270655  0.13897655  0.99185340    -0.15600
C430        C  0.76512750  0.11299784  0.01463617    -0.30800
H431        H  0.70503725  0.14800871  0.99797494     0.13400
H432        H  0.80369428  0.10547240  0.00999194     0.14000
C433        C  0.73924163  0.29818480  0.26006179    -0.15600
C434        C  0.78688135  0.29479600  0.24768742    -0.30800
H435        H  0.70916770  0.29897994  0.23873046     0.13400
H436        H  0.81683883  0.29263850  0.26903018     0.14000
C437        C  0.76862748  0.46346961  0.74734051    -0.15600
C438        C  0.72227246  0.45585259  0.76053925    -0.30800
H439        H  0.79715283  0.47193703  0.76805538     0.13400
H440        H  0.69281393  0.45064679  0.73940578     0.14000
C441        C  0.74526742  0.37418087  0.52357327    -0.15600
C442        C  0.77246680  0.35102898  0.50100726    -0.30800
H443        H  0.70707407  0.38064413  0.51601676     0.13400
H444        H  0.81163729  0.34649718  0.50652505     0.14000
C445        C  0.28965300  0.29833770  0.26145666    -0.15600
C446        C  0.24258906  0.29488259  0.24883875    -0.30800
H447        H  0.31979683  0.30029313  0.24024554     0.13400
H448        H  0.21297115  0.28962292  0.26988643     0.14000
C449        C  0.49936245  0.31275487  0.35268184    -0.15600
C450        C  0.53319802  0.33748983  0.36422126    -0.30800
H451        H  0.51189645  0.28581991  0.34195691     0.13400
H452        H  0.52097079  0.36403657  0.37614586     0.14000
C453        C  0.21958435  0.46537401  0.74659592    -0.15600
C454        C  0.26659355  0.46331307  0.76007943    -0.30800
H455        H  0.18913010  0.47025997  0.76697210     0.13400
H456        H  0.29713936  0.46137915  0.73922052     0.14000
C457        C  0.01718447  0.41926616  0.64444454    -0.15600
C458        C  0.98466446  0.44436610  0.65859504    -0.30800
H459        H  0.00337525  0.39432148  0.63016185     0.13400
H460        H  0.99786361  0.46996724  0.67186383     0.14000
C461        C  0.26097485  0.37308709  0.49443533    -0.15600
C462        C  0.27976365  0.40088722  0.51647243    -0.30800
H463        H  0.22426112  0.36223593  0.50052603     0.13400
H464        H  0.31558270  0.41293845  0.50966125     0.14000
C465        C  0.22271401  0.04565360  0.26089910    -0.15600
C466        C  0.26882657  0.03849997  0.24732395    -0.30800
H467        H  0.19229477  0.05019273  0.24037989     0.13400
H468        H  0.29810878  0.03104586  0.26799856     0.14000
C469        C  0.11120959  0.50367256  0.51555263    -0.15600
C470        C  0.12297407  0.00210035  0.49137763    -0.30800
H471        H  0.11725206  0.04768303  0.53049356     0.13400
H472        H  0.13290895  0.46268809  0.47461133     0.14000
C473        C  0.29837130  0.46604491  0.38414831    -0.15600
C474        C  0.29521843  0.43799669  0.35786958    -0.30800
H475        H  0.32040327  0.96385672  0.41447398     0.13400
H476        H  0.27056333  0.44122007  0.33262726     0.14000
C477        C  0.22819288  0.18869706  0.36484479    -0.15600
C478        C  0.22413004  0.21661342  0.39133674    -0.30800
H479        H  0.25102893  0.19265323  0.33864654     0.13400
H480        H  0.20141278  0.21358588  0.41769107     0.14000
C481        C  0.24635288  0.21114398  0.76266234    -0.15600
C482        C  0.29373681  0.21045539  0.74998791    -0.30800
H483        H  0.21640838  0.21484598  0.74149591     0.13400
H484        H  0.32402634  0.21015250  0.77115336     0.14000
C485        C  0.26215582  0.06451632  0.63422557    -0.15600
C486        C  0.30922234  0.07510392  0.63040997    -0.30800
H487        H  0.23402899  0.08568788  0.63963275     0.13400
H488        H  0.33810715  0.05494749  0.62376561     0.14000
C489        C  0.21938825  0.29630509  0.62344053    -0.15600
C490        C  0.22812756  0.32692800  0.64526664    -0.30800
H491        H  0.19183272  0.29685323  0.60002364     0.13400
H492        H  0.25692193  0.32593276  0.66773185     0.14000
C493        C  0.39313350  0.27217123  0.52370551    -0.15600
C494        C  0.39706646  0.25489350  0.48829876    -0.30800
H495        H  0.38711118  0.30207298  0.52468134     0.13400
H496        H  0.39857281  0.22468102  0.48739169     0.14000
C497        C  0.25633970  0.14787890  0.51368398    -0.15600
C498        C  0.28007736  0.12479747  0.48908523    -0.30800
H499        H  0.21632928  0.15081563  0.51208314     0.13400
H500        H  0.32005533  0.12167088  0.49039454     0.14000
C501        C  0.77757673  0.03150412  0.25986568    -0.15600
C502        C  0.72960907  0.03451444  0.24760910    -0.30800
H503        H  0.80700159  0.02836686  0.23820016     0.13400
H504        H  0.69999452  0.03599233  0.26930683     0.14000
C505        C  0.78842979  0.17919391  0.35214274    -0.15600
C506        C  0.79689486  0.20666164  0.37836340    -0.30800
H507        H  0.76106593  0.18323935  0.32889496     0.13400
H508        H  0.82351383  0.20271857  0.40216314     0.14000
C509        C  0.72616963  0.45908530  0.39993083    -0.15600
C510        C  0.73482685  0.43044698  0.37512832    -0.30800
H511        H  0.70216312  0.45610519  0.42553304     0.13400
H512        H  0.75842771  0.43479941  0.34941528     0.14000
C513        C  0.88152593  0.48078179  0.50957245    -0.15600
C514        C  0.89425902  0.00957211  0.49145240    -0.30800
H515        H  0.87335155  0.46022804  0.48697064     0.13400
H516        H  0.90436259  0.03026182  0.51335384     0.14000
C517        C  0.99433993  0.05951823  0.35268111    -0.15600
C518        C  0.02466092  0.08627627  0.36617681    -0.30800
H519        H  0.01019064  0.03310376  0.34338614     0.13400
H520        H  0.00894050  0.11234675  0.37661463     0.14000
C521        C  0.73598161  0.20411329  0.74650975    -0.15600
C522        C  0.78366324  0.20484319  0.75907339    -0.30800
H523        H  0.70592192  0.20620510  0.76776795     0.13400
H524        H  0.81350047  0.20608397  0.73753661     0.14000
C525        C  0.62084189  0.24691047  0.51656176    -0.15600
C526        C  0.62838792  0.23470395  0.47911008    -0.30800
H527        H  0.61286299  0.27617074  0.52156589     0.16600
H528        H  0.63726504  0.20551966  0.47446293     0.14000
C529        C  0.77151451  0.29886918  0.61945234    -0.15600
C530        C  0.80135681  0.31372360  0.64704553    -0.30800
H531        H  0.75456400  0.31705849  0.59741125     0.13400
H532        H  0.81855365  0.29692513  0.67008801     0.14000
C533        C  0.73500310  0.06572637  0.63776637    -0.15600
C534        C  0.71733646  0.03679381  0.61707772    -0.30800
H535        H  0.76877752  0.06181492  0.65488145     0.13400
H536        H  0.68443752  0.03930292  0.59879173     0.14000
C537        C  0.52650226  0.16650579  0.64297790    -0.15600
C538        C  0.49744115  0.19477661  0.65447352    -0.30800
H539        H  0.50991826  0.14239790  0.62896819     0.13400
H540        H  0.51417993  0.21982918  0.66633785     0.14000
C541        C  0.78312070  0.14427018  0.51232889    -0.15600
C542        C  0.75825654  0.12248678  0.48686215    -0.30800
H543        H  0.82173338  0.15132261  0.50760893     0.13400
H544        H  0.71888304  0.11740579  0.49062961     0.14000
O545        O  0.74192595  0.62881510  0.63434673    -0.81000
C546        C  0.62023315  0.72479149  0.55399771     0.98400
O547        O  0.63754945  0.69241437  0.54935063    -0.70100
O548        O  0.70686649  0.64324741  0.55796119    -0.73700
Al549      Al  0.65145748  0.65528950  0.58786397     1.49000
C550        C  0.74875081  0.65719014  0.55260853     0.93600
O551        O  0.76468215  0.73319708  0.63184701    -0.79900
O552        O  0.67560485  0.72364619  0.69072796    -0.73500
Al553      Al  0.74621570  0.68174407  0.63123064     1.90100
O554        O  0.69424119  0.76176897  0.62192206    -0.72500
O555        O  0.59284971  0.69874310  0.65813258    -0.72400
O556        O  0.61471212  0.73813981  0.58847372    -0.78000
O557        O  0.58759477  0.65905508  0.60975140    -0.76200
O558        O  0.68155791  0.68800219  0.61969865    -1.12400
O559        O  0.66423379  0.61411651  0.62217506    -0.71600
C560        C  0.70757282  0.60509192  0.63285227     0.99200
C561        C  0.74033330  0.76247326  0.62546891     0.95600
Al562      Al  0.64740085  0.72692511  0.63836116     1.55600
O563        O  0.76609435  0.68021218  0.57689670    -0.76200
C564        C  0.56860718  0.67510826  0.63892587     0.99700
C565        C  0.71017045  0.70459504  0.70621276     0.94600
O566        O  0.73616788  0.68261622  0.68599899    -0.81500
O567        O  0.76277455  0.54918158  0.33023211    -0.81000
C568        C  0.88681586  0.52756580  0.45535420     0.98400
O569        O  0.86636525  0.50669875  0.42967321    -0.70100
O570        O  0.79649772  0.48989084  0.37735922    -0.73700
Al571      Al  0.85353378  0.51889302  0.37475282     1.49000
C572        C  0.75589389  0.49311753  0.39467653     0.93600
O573        O  0.75244520  0.59262148  0.43138850    -0.79900
O574        O  0.84026526  0.63838702  0.38480997    -0.73500
Al575      Al  0.76331406  0.57021244  0.38216021     1.90100
O576        O  0.82574496  0.60577312  0.45514681    -0.72500
O577        O  0.91927593  0.59367152  0.37255761    -0.72400
O578        O  0.89965759  0.56046883  0.44638497    -0.78000
O579        O  0.91952603  0.53351297  0.36704480    -0.76200
O580        O  0.82809493  0.56249390  0.38944742    -1.12400
O581        O  0.83932434  0.52921187  0.31950913    -0.71600
C582        C  0.79605846  0.53750687  0.30685439     0.99200
C583        C  0.77954649  0.60536746  0.45820688     0.95600
Al584      Al  0.86781369  0.59644060  0.41217533     1.55600
O585        O  0.74224044  0.52449381  0.40685124    -0.76200
C586        C  0.94132878  0.56389415  0.36344605     0.99700
C587        C  0.80073952  0.64339120  0.36542602     0.94600
O588        O  0.77212870  0.61690285  0.35759093    -0.81500
O589        O  0.25539939  0.69276534  0.68256943    -0.81000
C590        C  0.38167901  0.73747509  0.55948148     0.98400
O591        O  0.38128405  0.75263556  0.59356227    -0.70100
O592        O  0.29792712  0.77155958  0.62526818    -0.73700
Al593      Al  0.34702667  0.73947520  0.64263960     1.49000
C594        C  0.25207552  0.76918239  0.62160397     0.93600
O595        O  0.24516997  0.68302460  0.57141340    -0.79900
O596        O  0.34733221  0.62669896  0.63087057    -0.73500
Al597      Al  0.25550786  0.68838875  0.62694089     1.90100
O598        O  0.31011822  0.64831479  0.56084029    -0.72500
O599        O  0.41970618  0.67618479  0.62011192    -0.72400
O600        O  0.37167168  0.70335562  0.55552625    -0.78000
O601        O  0.40317321  0.71622849  0.66599785    -0.76200
O602        O  0.32039990  0.69840756  0.62196604    -1.12400
O603        O  0.31503090  0.73327595  0.69314000    -0.71600
C604        C  0.27883433  0.71406654  0.70536567     0.99200
C605        C  0.26765976  0.65899474  0.55115450     0.95600
Al606      Al  0.35899968  0.66678029  0.59461193     1.55600
O607        O  0.23101508  0.73813467  0.62168727    -0.76200
C608        C  0.43298059  0.69441023  0.64976710     0.99700
C609        C  0.30380390  0.61440086  0.63547149     0.94600
O610        O  0.26652448  0.63598954  0.63326050    -0.81500
O611        O  0.23765872  0.62467055  0.35986822    -0.81000
C612        C  0.13159732  0.51693081  0.44448781     0.98400
O613        O  0.12253220  0.55153023  0.44672247    -0.70100
O614        O  0.20149306  0.58838489  0.46389000    -0.73700
Al615      Al  0.15626994  0.59340442  0.42254947     1.49000
C616        C  0.24576280  0.59832092  0.46188524     0.93600
O617        O  0.27828265  0.52952378  0.39734358    -0.79900
O618        O  0.17782066  0.54713641  0.31275322    -0.73500
Al619      Al  0.25489954  0.57685444  0.37903652     1.90100
O620        O  0.22492530  0.49718000  0.36273296    -0.72500
O621        O  0.09794467  0.54750031  0.36157239    -0.72400
O622        O  0.15133065  0.50337382  0.41379335    -0.78000
O623        O  0.10546457  0.60334442  0.38591274    -0.76200
O624        O  0.19189600  0.56588822  0.38879305    -1.12400
O625        O  0.18411183  0.64028768  0.40626146    -0.71600
C626        C  0.21337656  0.64908350  0.37854241     0.99200
C627        C  0.26574896  0.49934545  0.38115138     0.95600
Al628      Al  0.16483553  0.52709532  0.36461074     1.55600
O629        O  0.26951183  0.59660382  0.42992813    -0.76200
C630        C  0.07984971  0.57939290  0.36875000     0.99700
C631        C  0.22149008  0.55351652  0.30079897     0.94600
O632        O  0.25553555  0.56042426  0.32522305    -0.81500
O633        O  0.24711415  0.89817305  0.64741690    -0.81000
C634        C  0.12362764  0.99492240  0.56435217     0.98400
O635        O  0.11883470  0.95990077  0.56267960    -0.70100
O636        O  0.20211716  0.92853965  0.54701569    -0.73700
Al637      Al  0.15684446  0.92125855  0.58790936     1.49000
C638        C  0.24812860  0.92460491  0.54870216     0.93600
O639        O  0.26495739  0.99944378  0.61620229    -0.79900
O640        O  0.16755997  0.96645609  0.69780144    -0.73500
Al641      Al  0.25211791  0.94841617  0.63106756     1.90100
O642        O  0.20329339  0.02167009  0.65120716    -0.72500
O643        O  0.08942158  0.96250871  0.64676202    -0.72400
O644        O  0.13709092  0.01049320  0.59621454    -0.78000
O645        O  0.10566859  0.90765988  0.62331277    -0.76200
O646        O  0.18708455  0.95191992  0.62157654    -1.12400
O647        O  0.19053886  0.87791101  0.60580337    -0.71600
C648        C  0.22420809  0.87189941  0.63092575     0.99200
C649        C  0.24364632  0.02629419  0.63362079     0.95600
Al650      Al  0.15197305  0.98708219  0.64604879     1.55600
O651        O  0.27167370  0.93254546  0.57957770    -0.76200
C652        C  0.07590847  0.92992021  0.63904698     0.99700
C653        C  0.21214802  0.96274664  0.70968513     0.94600
O654        O  0.24745247  0.96145836  0.68523821    -0.81500
O655        O  0.25360075  0.81165735  0.33063219    -0.81000
C656        C  0.37584441  0.77010928  0.45049122     0.98400
O657        O  0.35661698  0.75478278  0.42033814    -0.70100
O658        O  0.28353211  0.74860669  0.36874862    -0.73700
Al659      Al  0.34314166  0.77528798  0.36924573     1.49000
C660        C  0.24520678  0.75078369  0.38946866     0.93600
O661        O  0.24558912  0.84800614  0.43558040    -0.79900
O662        O  0.34091019  0.89179234  0.39349475    -0.73500
Al663      Al  0.25665970  0.82825980  0.38479570     1.90100
O664        O  0.31885679  0.85624317  0.46106112    -0.72500
O665        O  0.41674915  0.84439160  0.38258308    -0.72400
O666        O  0.38618727  0.80469442  0.45065239    -0.78000
O667        O  0.40972006  0.78746699  0.36291606    -0.76200
O668        O  0.32080573  0.81728503  0.39117826    -1.12400
O669        O  0.32986860  0.79369665  0.31674119    -0.71600
C670        C  0.28661275  0.80303989  0.30556251     0.99200
C671        C  0.27280796  0.85939864  0.46291508     0.95600
Al672      Al  0.36209639  0.84636950  0.41901749     1.55600
O673        O  0.23384701  0.78122115  0.40551579    -0.76200
C674        C  0.43527377  0.81588513  0.36691815     0.99700
C675        C  0.30249100  0.90009290  0.37362478     0.94600
O676        O  0.27033062  0.87613557  0.36480731    -0.81500
O677        O  0.77200036  0.93243831  0.68634635    -0.81000
C678        C  0.87854710  0.96293032  0.54571054     0.98400
O679        O  0.87579696  0.98574917  0.57443843    -0.70100
O680        O  0.79215305  0.00568890  0.60545659    -0.73700
Al681      Al  0.84666854  0.98079551  0.62764376     1.49000
C682        C  0.74788719  0.00285556  0.61572980     0.93600
O683        O  0.74455816  0.91476632  0.57893214    -0.79900
O684        O  0.85300161  0.86499225  0.63928065    -0.73500
Al685      Al  0.76101199  0.92400273  0.63249013     1.90100
O686        O  0.80940305  0.87884102  0.56741254    -0.72500
O687        O  0.92297774  0.91394894  0.62017299    -0.72400
O688        O  0.87307662  0.92868399  0.55146262    -0.78000
O689        O  0.90676820  0.96553533  0.65140525    -0.76200
O690        O  0.82366439  0.93512106  0.61943586    -1.12400
O691        O  0.81879724  0.98286129  0.68145776    -0.71600
C692        C  0.79071897  0.96123801  0.70145861     0.99200
C693        C  0.76654274  0.89027712  0.55857243     0.95600
Al694      Al  0.86172474  0.89991692  0.59688123     1.55600
O695        O  0.73164654  0.97241599  0.62814823    -0.76200
C696        C  0.93641458  0.94003364  0.64236012     0.99700
C697        C  0.81026349  0.85174884  0.64410272     0.94600
O698        O  0.77272809  0.87256744  0.64112936    -0.81500
O699        O  0.73307015  0.86849040  0.36328824    -0.81000
C700        C  0.62532351  0.76162616  0.44704173     0.98400
O701        O  0.61660427  0.79625493  0.44954676    -0.70100
O702        O  0.69790185  0.82916581  0.46660586    -0.73700
Al703      Al  0.65241084  0.83767749  0.42639662     1.49000
C704        C  0.74267459  0.83765365  0.46470158     0.93600
O705        O  0.77080344  0.77212037  0.39732381    -0.79900
O706        O  0.66876735  0.79316448  0.31528319    -0.73500
Al707      Al  0.74886493  0.82008436  0.38087386     1.90100
O708        O  0.71527377  0.74149678  0.36311737    -0.72500
O709        O  0.59063476  0.79472790  0.36577660    -0.72400
O710        O  0.64389037  0.74813948  0.41588301    -0.78000
O711        O  0.60181683  0.85015393  0.39057020    -0.76200
O712        O  0.68582984  0.81021401  0.39134216    -1.12400
O713        O  0.68274740  0.88459207  0.41162192    -0.71600
C714        C  0.71116979  0.89319838  0.38320936     0.99200
C715        C  0.75682477  0.74268019  0.38052307     0.95600
Al716      Al  0.65655258  0.77253254  0.36692250     1.55600
O717        O  0.76559140  0.83773883  0.43228531    -0.76200
C718        C  0.57452264  0.82710221  0.37361330     0.99700
C719        C  0.71234854  0.79898204  0.30278087     0.94600
O720        O  0.74714885  0.80515686  0.32674535    -0.81500
O721        O  0.75257895  0.63933927  0.86026165    -0.81000
C722        C  0.86996841  0.73513486  0.94954124     0.98400
O723        O  0.87729312  0.70021826  0.94860090    -0.70100
O724        O  0.79694538  0.66503036  0.96383202    -0.73700
Al725      Al  0.84106915  0.66167875  0.92159936     1.49000
C726        C  0.75159625  0.65816195  0.96258676     0.93600
O727        O  0.72539222  0.73468432  0.90266366    -0.79900
O728        O  0.82386216  0.71412203  0.81674374    -0.73500
Al729      Al  0.74275953  0.68690301  0.88191346     1.90100
O730        O  0.78050662  0.76434720  0.86714507    -0.72500
O731        O  0.90287571  0.71052198  0.86624928    -0.72400
O732        O  0.85149468  0.75221335  0.92007828    -0.78000
O733        O  0.89189780  0.65286207  0.88387493    -0.76200
O734        O  0.80717252  0.69321664  0.89099863    -1.12400
O735        O  0.80904424  0.61787718  0.90165438    -0.71600
C736        C  0.77552662  0.61256914  0.87608054     0.99200
C737        C  0.74001312  0.76412452  0.88591663     0.95600
Al738      Al  0.83750008  0.73204781  0.86918324     1.55600
O739        O  0.72661163  0.66525174  0.93203978    -0.76200
C740        C  0.91962360  0.67792674  0.87067881     0.99700
C741        C  0.77990981  0.70892108  0.80459642     0.94600
O742        O  0.74451356  0.70534354  0.82880836    -0.81500
O743        O  0.75433885  0.54517924  0.18429500    -0.81000
C744        C  0.62818639  0.50785597  0.06448564     0.98400
O745        O  0.64886163  0.49225894  0.09387898    -0.70100
O746        O  0.72393921  0.48500340  0.14264452    -0.73700
Al747      Al  0.66352778  0.51215232  0.14480965     1.49000
C748        C  0.76322127  0.48910064  0.12293795     0.93600
O749        O  0.76129172  0.58987105  0.08258426    -0.79900
O750        O  0.67288538  0.62888929  0.11477369    -0.73500
Al751      Al  0.75012442  0.56566448  0.13182596     1.90100
O752        O  0.69120461  0.58568594  0.05081657    -0.72500
O753        O  0.59584972  0.58593420  0.13185671    -0.72400
O754        O  0.61743424  0.54225864  0.06523602    -0.78000
O755        O  0.59669847  0.52821916  0.15180864    -0.76200
O756        O  0.68683662  0.55390936  0.12338119    -1.12400
O757        O  0.67803509  0.52846969  0.19789442    -0.71600
C758        C  0.72168173  0.53603548  0.20920778     0.99200
C759        C  0.73555069  0.59555748  0.05220363     0.95600
Al760      Al  0.64751925  0.58304281  0.09369206     1.55600
O761        O  0.77428510  0.52049099  0.10864481    -0.76200
C762        C  0.57441016  0.55877675  0.14786050     0.99700
C763        C  0.70626247  0.63660413  0.13978033     0.94600
O764        O  0.73285197  0.61152435  0.15533844    -0.81500
O765        O  0.23663909  0.70384951  0.82570876    -0.81000
C766        C  0.11819313  0.74311687  0.94885318     0.98400
O767        O  0.13801080  0.75916100  0.91932974    -0.70100
O768        O  0.21001379  0.76683947  0.86665220    -0.73700
Al769      Al  0.14934947  0.73993881  0.86750758     1.49000
C770        C  0.25043038  0.76254286  0.88463529     0.93600
O771        O  0.24880561  0.66445253  0.92871367    -0.79900
O772        O  0.15604913  0.62222171  0.89468686    -0.73500
Al773      Al  0.23583410  0.68560410  0.87874850     1.90100
O774        O  0.17775645  0.66221057  0.95957245    -0.72500
O775        O  0.07931427  0.66766945  0.88026470    -0.72400
O776        O  0.10601877  0.70904804  0.94745575    -0.78000
O777        O  0.08211233  0.72591441  0.86283103    -0.76200
O778        O  0.17266954  0.69742275  0.88796298    -1.12400
O779        O  0.16061088  0.72338739  0.81390432    -0.71600
C780        C  0.20330377  0.71385142  0.80163302     0.99200
C781        C  0.22363059  0.65713095  0.95888897     0.95600
Al782      Al  0.13309679  0.66806213  0.91742514     1.55600
O783        O  0.26126442  0.73132749  0.89939490    -0.76200
C784        C  0.05854846  0.69609657  0.86591267     0.99700
C785        C  0.19084975  0.61425739  0.87106772     0.94600
O786        O  0.21948523  0.63883078  0.85760020    -0.81500
O787        O  0.25914081  0.61937976  0.13178482    -0.81000
C788        C  0.38623839  0.53135156  0.05204746     0.98400
O789        O  0.37049618  0.56442469  0.04827325    -0.70100
O790        O  0.29914901  0.61286658  0.05606674    -0.73700
Al791      Al  0.35358387  0.59981046  0.08713321     1.49000
C792        C  0.25870084  0.59798503  0.04798953     0.93600
O793        O  0.24372304  0.51482521  0.11936460    -0.79900
O794        O  0.33325742  0.53331686  0.18999399    -0.73500
Al795      Al  0.25817916  0.56683526  0.12415518     1.90100
O796        O  0.31674290  0.48956055  0.12507709    -0.72500
O797        O  0.41486615  0.55659489  0.15522830    -0.72400
O798        O  0.39114269  0.51631408  0.08615919    -0.78000
O799        O  0.41802418  0.59781000  0.10853974    -0.76200
O800        O  0.32417514  0.56449057  0.11672456    -1.12400
O801        O  0.33647561  0.63826927  0.12341580    -0.71600
C802        C  0.29192813  0.64440450  0.13359044     0.99200
C803        C  0.27112260  0.48652411  0.12054562     0.95600
Al804      Al  0.36068524  0.52751973  0.13729748     1.55600
O805        O  0.24268636  0.57173370  0.06904569    -0.76200
C806        C  0.43836686  0.58087842  0.13650052     0.99700
C807        C  0.29311797  0.54760429  0.20251398     0.94600
O808        O  0.26251719  0.56235578  0.17915930    -0.81500
O809        O  0.25974074  0.88693618  0.87779466    -0.81000
C810        C  0.38690265  0.97862583  0.95373691     0.98400
O811        O  0.37089645  0.94598382  0.96001005    -0.70100
O812        O  0.30151849  0.89549055  0.95462732    -0.73700
Al813      Al  0.35422393  0.90863251  0.92244677     1.49000
C814        C  0.26050164  0.90955213  0.96257015     0.93600
O815        O  0.24220354  0.99136544  0.89145478    -0.79900
O816        O  0.32866882  0.97291585  0.81777379    -0.73500
Al817      Al  0.25693665  0.93959235  0.88567353     1.90100
O818        O  0.31447411  0.01685656  0.88233196    -0.72500
O819        O  0.41203997  0.94898125  0.85061271    -0.72400
O820        O  0.39116525  0.99141787  0.91865839    -0.78000
O821        O  0.41781310  0.91070428  0.90002778    -0.76200
O822        O  0.32308541  0.94252558  0.89184003    -1.12400
O823        O  0.33743978  0.86868951  0.88780533    -0.71600
C824        C  0.29328873  0.86210879  0.87691491     0.99200
C825        C  0.26925642  0.01962998  0.88923835     0.95600
Al826      Al  0.35837132  0.97897048  0.86926569     1.55600
O827        O  0.24270271  0.93463774  0.94083934    -0.76200
C828        C  0.43676841  0.92598657  0.87052585     0.99700
C829        C  0.28759042  0.95976672  0.80644003     0.94600
O830        O  0.25833270  0.94467387  0.83044057    -0.81500
O831        O  0.23594367  0.82182067  0.18529585    -0.81000
C832        C  0.11866734  0.77020441  0.05908705     0.98400
O833        O  0.12326700  0.75361601  0.09233441    -0.70100
O834        O  0.20705303  0.73891365  0.12748878    -0.73700
Al835      Al  0.15299765  0.76831345  0.14257825     1.49000
C836        C  0.25266821  0.74446250  0.12613651     0.93600
O837        O  0.25042965  0.82804407  0.07422205    -0.79900
O838        O  0.14398326  0.88269533  0.13036454    -0.73500
Al839      Al  0.23915512  0.82460212  0.12947748     1.90100
O840        O  0.18441832  0.86109802  0.06045554    -0.72500
O841        O  0.07500008  0.83023139  0.12047355    -0.72400
O842        O  0.12432816  0.80496988  0.05618864    -0.78000
O843        O  0.09254042  0.78693243  0.16316884    -0.76200
O844        O  0.17565550  0.81132404  0.12287126    -1.12400
O845        O  0.18117852  0.77698100  0.19445785    -0.71600
C846        C  0.21374045  0.79913915  0.20772717     0.99200
C847        C  0.22739563  0.85032647  0.05197753     0.95600
Al848      Al  0.13535550  0.84172755  0.09482743     1.55600
O849        O  0.26935708  0.77680358  0.12735516    -0.76200
C850        C  0.06180007  0.80868013  0.14772902     0.99700
C851        C  0.18654211  0.89669458  0.13453896     0.94600
O852        O  0.22494951  0.87649411  0.13287410    -0.81500
O853        O  0.75141365  0.95517174  0.82293076    -0.81000
C854        C  0.62979118  0.99433658  0.94625590     0.98400
O855        O  0.65087863  0.01016742  0.91716640    -0.70100
O856        O  0.72444962  0.01604620  0.86603190    -0.73700
Al857      Al  0.66332586  0.99069906  0.86511208     1.49000
C858        C  0.76514668  0.01057322  0.88331438     0.93600
O859        O  0.76041755  0.91017978  0.92436208    -0.79900
O860        O  0.66976102  0.87293074  0.89293809    -0.73500
Al861      Al  0.74857847  0.93460412  0.87527391     1.90100
O862        O  0.69087256  0.91447957  0.95715027    -0.72500
O863        O  0.59389532  0.91837616  0.87676613    -0.72400
O864        O  0.61781538  0.96026516  0.94428857    -0.78000
O865        O  0.59586683  0.97669093  0.85904595    -0.76200
O866        O  0.68594707  0.94791126  0.88517260    -1.12400
O867        O  0.67553714  0.97481067  0.81130031    -0.71600
C868        C  0.71836396  0.96573928  0.79893498     0.99200
C869        C  0.73532990  0.90440271  0.95507750     0.95600
Al870      Al  0.64625910  0.91919284  0.91474697     1.55600
O871        O  0.77550625  0.97901486  0.89768283    -0.76200
C872        C  0.57302352  0.94644010  0.86167879     0.99700
C873        C  0.70276227  0.86457475  0.86780129     0.94600
O874        O  0.72937699  0.88921417  0.85190700    -0.81500
O875        O  0.75913172  0.86218059  0.14661027    -0.81000
C876        C  0.87210938  0.76166490  0.05899221     0.98400
O877        O  0.87964745  0.79644711  0.05861696    -0.70100
O878        O  0.79975937  0.83326720  0.04257458    -0.73700
Al879      Al  0.84485044  0.83620480  0.08456253     1.49000
C880        C  0.75465148  0.84140004  0.04449623     0.93600
O881        O  0.72763877  0.76680463  0.10649997    -0.79900
O882        O  0.82647718  0.78644054  0.19189579    -0.73500
Al883      Al  0.74669273  0.81453286  0.12606850     1.90100
O884        O  0.78286925  0.73640458  0.14176251    -0.72500
O885        O  0.90621083  0.78829215  0.14303721    -0.72400
O886        O  0.85458434  0.74570041  0.08941351    -0.78000
O887        O  0.89568611  0.84494747  0.12150706    -0.76200
O888        O  0.81072056  0.80628998  0.11662612    -1.12400
O889        O  0.81519642  0.88089353  0.10355227    -0.71600
C890        C  0.78359238  0.88771143  0.13015343     0.99200
C891        C  0.74231158  0.73716075  0.12308433     0.95600
Al892      Al  0.84039552  0.76748416  0.13972728     1.55600
O893        O  0.73048831  0.83564719  0.07571186    -0.76200
C894        C  0.92267321  0.82066835  0.13727423     0.99700
C895        C  0.78262268  0.79264858  0.20390556     0.94600
O896        O  0.74766514  0.79706484  0.17949353    -0.81500
C897        C  0.75797379  0.88347528  0.98771512    -0.15600
C898        C  0.73102862  0.86125606  0.01144099    -0.30800
H899        H  0.79800416  0.88428268  0.99058493     0.13400
H900        H  0.69099081  0.86044255  0.00871026     0.14000
C901        C  0.00873501  0.80572410  0.15839871    -0.15600
C902        C  0.97528928  0.82999390  0.14393340    -0.30800
H903        H  0.99636893  0.78024431  0.17263582     0.13400
H904        H  0.98820966  0.85575159  0.13056077     0.14000
C905        C  0.48973931  0.91864119  0.86278874    -0.15600
C906        C  0.52002763  0.94580383  0.85034211    -0.30800
H907        H  0.50568716  0.89404324  0.87672694     0.13400
H908        H  0.50408467  0.97146336  0.83875893     0.14000
C909        C  0.23363376  0.89501082  0.99694139    -0.15600
C910        C  0.25169534  0.86529975  0.01686862    -0.30800
H911        H  0.19907393  0.90822124  0.00567091     0.13400
H912        H  0.28650212  0.85238564  0.00821729     0.14000
C913        C  0.39468896  0.50885784  0.01566833    -0.15600
C914        C  0.39648787  0.00384811  0.98778224    -0.30800
H915        H  0.40340630  0.47948265  0.01911472     0.13400
H916        H  0.39816424  0.03351750  0.98164382     0.14000
C917        C  0.22861261  0.95152608  0.11133261    -0.15600
C918        C  0.19397487  0.93735158  0.13578740    -0.30800
H919        H  0.24615530  0.93306072  0.08997646     0.13400
H920        H  0.17602760  0.95419871  0.15827474     0.14000
C921        C  0.27463123  0.68147161  0.14497263    -0.15600
C922        C  0.28626073  0.71214525  0.12423817    -0.30800
H923        H  0.24283133  0.68236377  0.16473320     0.13400
H924        H  0.31724935  0.71232747  0.10373867     0.14000
C925        C  0.20294947  0.57544688  0.86149055    -0.15600
C926        C  0.20111440  0.54815441  0.88896561    -0.30800
H927        H  0.22493320  0.57114084  0.83489227     0.13400
H928        H  0.18013619  0.55181033  0.91614141     0.14000
C929        C  0.27765437  0.82478645  0.86488909    -0.15600
C930        C  0.28391882  0.79482326  0.88849251    -0.30800
H931        H  0.25035827  0.82374196  0.84127289     0.13400
H932        H  0.30981558  0.79563300  0.91307934     0.14000
C933        C  0.10958954  0.74841736  0.02234135    -0.15600
C934        C  0.11198257  0.76454770  0.98603609    -0.30800
H935        H  0.10694107  0.71834319  0.02485336     0.13400
H936        H  0.11690231  0.79447552  0.98381545     0.14000
C937        C  0.24894545  0.64162789  0.99324244    -0.15600
C938        C  0.23014391  0.61329864  0.01461386    -0.30800
H939        H  0.28616993  0.65167482  0.99881036     0.13400
H940        H  0.19403375  0.60185770  0.00765345     0.14000
C941        C  0.71936553  0.67547971  0.14795449    -0.15600
C942        C  0.71276694  0.70276602  0.12093470    -0.30800
H943        H  0.74348384  0.68030780  0.17318507     0.13400
H944        H  0.68911735  0.69851457  0.09533948     0.14000
C945        C  0.77100785  0.92605777  0.13998288    -0.15600
C946        C  0.78044196  0.95453087  0.11521091    -0.30800
H947        H  0.74632959  0.93006946  0.16508605     0.13400
H948        H  0.81673232  0.45381200  0.09004652     0.14000
C949        C  0.62156605  0.01579201  0.98367302    -0.15600
C950        C  0.61950824  0.48527796  0.02828737    -0.30800
H951        H  0.60856432  0.52990674  0.98816581     0.13400
H952        H  0.61330795  0.96903030  0.02094324     0.14000
C953        C  0.52127088  0.56079879  0.15850969    -0.15600
C954        C  0.49153149  0.58763575  0.14385455    -0.30800
H955        H  0.50485273  0.53603469  0.17149290     0.13400
H956        H  0.50795648  0.61137523  0.12885368     0.14000
C957        C  0.88023936  0.73977531  0.02237442    -0.15600
C958        C  0.88004455  0.75622497  0.98628287    -0.30800
H959        H  0.87776424  0.70966331  0.02456554     0.13400
H960        H  0.87881505  0.78640334  0.98421643     0.14000
C961        C  0.71032088  0.79872126  0.88784276    -0.15600
C962        C  0.71569924  0.82544321  0.86004446    -0.30800
H963        H  0.68740547  0.80354702  0.91378311     0.13400
H964        H  0.73911884  0.82003539  0.83448837     0.14000
C965        C  0.77159389  0.54496459  0.88840339    -0.15600
C966        C  0.75835814  0.57490722  0.86699287    -0.30800
H967        H  0.80192440  0.54621499  0.90945884     0.13400
H968        H  0.72875394  0.57247327  0.84533336     0.14000
C969        C  0.97323314  0.66988668  0.86537302    -0.15600
C970        C  0.00521027  0.69697372  0.85559448    -0.30800
H971        H  0.98728919  0.64327982  0.87599010     0.13400
H972        H  0.99062108  0.72359150  0.84542512     0.14000
C973        C  0.72889267  0.63813948  0.99569984    -0.15600
C974        C  0.75698842  0.61635494  0.01924679    -0.30800
H975        H  0.68888052  0.63868520  0.99885122     0.13400
H976        H  0.79700473  0.61589645  0.01604758     0.14000
C977        C  0.72386386  0.79731515  0.26005860    -0.15600
C978        C  0.77104157  0.79441139  0.24665421    -0.30800
H979        H  0.69306337  0.79731376  0.23937643     0.13400
H980        H  0.80168657  0.79304175  0.26745050     0.14000
C981        C  0.77789616  0.96952668  0.74306675    -0.15600
C982        C  0.73070011  0.96602792  0.75619840    -0.30800
H983        H  0.80735294  0.97712398  0.76332774     0.13400
H984        H  0.70099045  0.96122481  0.73516812     0.14000
C985        C  0.74195663  0.87361494  0.52473648    -0.15600
C986        C  0.76694281  0.85114017  0.50003895    -0.30800
H987        H  0.70338474  0.88065222  0.51925172     0.13400
H988        H  0.80638102  0.84612512  0.50351410     0.14000
C989        C  0.27365345  0.80357990  0.26294166    -0.15600
C990        C  0.22674011  0.79822199  0.25028702    -0.30800
H991        H  0.30323044  0.80735464  0.24151046     0.13400
H992        H  0.19794021  0.79112158  0.27143193     0.14000
C993        C  0.48818952  0.81288454  0.35612422    -0.15600
C994        C  0.52195736  0.83762627  0.36777553    -0.30800
H995        H  0.50068028  0.78620860  0.34467299     0.13400
H996        H  0.50969706  0.86407966  0.37991936     0.14000
C997        C  0.22502392  0.96030585  0.75228632    -0.15600
C998        C  0.27288490  0.96250611  0.76441263    -0.30800
H999        H  0.19542912  0.95696360  0.77376367     0.13400
H1000       H  0.30209732  0.96782218  0.74303842     0.14000
C1001       C  0.02356414  0.91888865  0.64349524    -0.15600
C1002       C  0.98864313  0.94341594  0.65481113    -0.30800
H1003       H  0.01259212  0.89254813  0.63054635     0.13400
H1004       H  0.99967594  0.96972634  0.66780881     0.14000
C1005       C  0.24998321  0.87885368  0.49620258    -0.15600
C1006       C  0.27350645  0.90609634  0.51585424    -0.30800
H1007       H  0.21143793  0.87273678  0.50268876     0.13400
H1008       H  0.31220331  0.91215606  0.51006320     0.14000
C1009       C  0.23382259  0.55232390  0.25817585    -0.15600
C1010       C  0.28088009  0.54730155  0.24521657    -0.30800
H1011       H  0.20363859  0.55486285  0.23706488     0.13400
H1012       H  0.31062312  0.54236167  0.26626856     0.14000
C1013       C  0.11763353  0.01758091  0.52765632    -0.15600
C1014       C  0.12268048  0.49169995  0.47874094    -0.30800
H1015       H  0.10165014  0.53273475  0.52014516     0.13400
H1016       H  0.12643776  0.97204839  0.48900608     0.14000
C1017       C  0.29630915  0.96701541  0.38891127    -0.15600
C1018       C  0.29056936  0.93888225  0.36307124    -0.30800
H1019       H  0.32185302  0.46311342  0.41011003     0.13400
H1020       H  0.26554737  0.94280970  0.33815404     0.14000
C1021       C  0.22337645  0.68821539  0.36915962    -0.15600
C1022       C  0.21591473  0.71651127  0.39470574    -0.30800
H1023       H  0.24536871  0.69293758  0.34263652     0.13400
H1024       H  0.19394933  0.71279593  0.42136209     0.14000
C1025       C  0.21600393  0.71420997  0.75900291    -0.15600
C1026       C  0.26378807  0.71648899  0.74724004    -0.30800
H1027       H  0.18649646  0.71243026  0.73725199     0.13400
H1028       H  0.29271062  0.72138348  0.76893793     0.14000
C1029       C  0.25423950  0.56090375  0.61880200    -0.15600
C1030       C  0.29449844  0.57391309  0.63767566    -0.30800
H1031       H  0.23034913  0.58048815  0.60314774     0.13400
H1032       H  0.31985700  0.55536287  0.65310611     0.14000
C1033       C  0.22379307  0.80403999  0.61896167    -0.15600
C1034       C  0.24051440  0.83376393  0.63902078    -0.30800
H1035       H  0.19162752  0.80587769  0.59975044     0.13400
H1036       H  0.27163735  0.83051047  0.65921478     0.14000
C1037       C  0.39035278  0.76065193  0.52334737    -0.15600
C1038       C  0.38334298  0.74677382  0.48653835    -0.30800
H1039       H  0.39603936  0.79032865  0.52713212     0.13400
H1040       H  0.37603150  0.71723306  0.48326954     0.14000
C1041       C  0.24410618  0.64119114  0.51720084    -0.15600
C1042       C  0.26872168  0.61526047  0.49619117    -0.30800
H1043       H  0.20626065  0.64877314  0.50965101     0.13400
H1044       H  0.30747962  0.60911312  0.50189622     0.14000
C1045       C  0.78309422  0.53414882  0.26428540    -0.15600
C1046       C  0.73530889  0.53464123  0.25173704    -0.30800
H1047       H  0.81304516  0.53210876  0.24293376     0.13400
H1048       H  0.70538405  0.53472508  0.27322690     0.14000
C1049       C  0.78315177  0.68118769  0.35571801    -0.15600
C1050       C  0.78897543  0.70928749  0.38154578    -0.30800
H1051       H  0.75598008  0.68396542  0.33212970     0.13400
H1052       H  0.81515174  0.70653130  0.40584111     0.14000
C1053       C  0.71980389  0.96061922  0.39954788    -0.15600
C1054       C  0.72322764  0.93208528  0.37384716    -0.30800
H1055       H  0.69913620  0.95809511  0.42700750     0.13400
H1056       H  0.74380361  0.93613969  0.34646447     0.14000
C1057       C  0.88392118  0.97488140  0.50356045    -0.15600
C1058       C  0.89277777  0.51535030  0.49754866    -0.30800
H1059       H  0.87504637  0.95422844  0.48124541     0.13400
H1060       H  0.90222217  0.53615000  0.51951290     0.14000
C1061       C  0.99417890  0.56213407  0.35186663    -0.15600
C1062       C  0.02683261  0.58837618  0.36184468    -0.30800
H1063       H  0.00808298  0.53509431  0.34260186     0.13400
H1064       H  0.01324559  0.61501922  0.37255533     0.14000
C1065       C  0.72160845  0.70877538  0.74850104    -0.15600
C1066       C  0.76867043  0.70671807  0.76194930    -0.30800
H1067       H  0.69134886  0.71516049  0.76859195     0.13400
H1068       H  0.79915908  0.70302426  0.74131305     0.14000
C1069       C  0.60979797  0.74862864  0.51873458    -0.15600
C1070       C  0.61760133  0.73637852  0.48145437    -0.30800
H1071       H  0.60200040  0.77792471  0.52372228     0.16600
H1072       H  0.62618100  0.70713561  0.47684529     0.14000
C1073       C  0.76380936  0.79892109  0.62215911    -0.15600
C1074       C  0.80139291  0.81123850  0.64485250    -0.30800
H1075       H  0.74363813  0.81876165  0.60375167     0.13400
H1076       H  0.82315449  0.79263917  0.66341835     0.14000
C1077       C  0.72141486  0.56637377  0.64129730    -0.15600
C1078       C  0.70984711  0.53807075  0.61708541    -0.30800
H1079       H  0.75130365  0.56237612  0.66252119     0.13400
H1080       H  0.68157321  0.54095826  0.59441560     0.14000
C1081       C  0.51605918  0.66750827  0.64693802    -0.15600
C1082       C  0.48532016  0.69298251  0.66258863    -0.30800
H1083       H  0.50031844  0.64417704  0.63093347     0.13400
H1084       H  0.50009846  0.71674738  0.67839029     0.14000
C1085       C  0.77690682  0.64452635  0.51801537    -0.15600
C1086       C  0.75562191  0.62001534  0.49333881    -0.30800
H1087       H  0.81428603  0.65449967  0.51298560     0.13400
H1088       H  0.71757429  0.61123843  0.49785365     0.14000
loop_ 
_geom_bond_atom_site_label_1 
_geom_bond_atom_site_label_2 
_geom_bond_distance 
_geom_bond_site_symmetry_2 
_ccdc_geom_bond_type 
O1           C16   1.268       .  A
O1           Al9   1.915       .  S
C2           O12   1.275       .  A
C2            O3   1.264       .  A
C2          C525   1.495       .  S
O3           Al5   1.896       .  S
O4            C6   1.249       .  A
O4           Al5   1.843       .  S
Al5          O13   1.875       .  S
Al5          O15   1.903       .  S
Al5          O14   1.797       .  S
C6           O19   1.259       .  A
C6          C541   1.462       .  S
O7           C17   1.255       .  A
O7           Al9   1.913       .  S
O8           C21   1.272       .  A
O8          Al18   1.946       .  S
Al9          O22   1.874       .  S
Al9          O19   1.917       .  S
Al9          O14   1.801       .  S
O10          C17   1.248       .  A
O10         Al18   1.860       .  S
O11          C20   1.255       .  A
O11         Al18   1.904       .  S
O12         Al18   1.958       .  S
O13          C20   1.247       .  A
O14         Al18   1.784       .  S
O15          C16   1.268       .  A
C16         C533   1.466       .  S
C17         C529   1.458       .  S
C20         C537   1.469       .  S
C21          O22   1.258       .  A
C21         C521   1.481       .  S
O23          C38   1.264       .  A
O23         Al31   1.910       .  S
C24          O34   1.266       .  A
C24          O25   1.274       .  A
C24         C514   1.494       .  S
O25         Al27   1.937       .  S
O26          C28   1.255       .  A
O26         Al27   1.886   1_565  S
Al27         O35   1.909       .  S
Al27         O37   1.947       .  S
Al27         O36   1.779       .  S
C28          O41   1.260   1_565  A
C28        C1053   1.480       .  S
O29          C39   1.254       .  A
O29         Al31   1.880       .  S
O30          C43   1.263       .  A
O30         Al40   1.903       .  S
Al31         O44   1.893       .  S
Al31         O41   1.930       .  S
Al31         O36   1.788       .  S
O32          C39   1.251       .  A
O32         Al40   1.861       .  S
O33          C42   1.258       .  A
O33         Al40   1.908       .  S
O34         Al40   1.923       .  S
O35          C42   1.256       .  A
O36         Al40   1.798       .  S
O37          C38   1.279       .  A
C38         C501   1.489       .  S
C39         C542   1.446       .  S
C42         C517   1.483       .  S
C43          O44   1.261       .  A
C43         C505   1.469       .  S
O45          C60   1.262       .  A
O45         Al53   1.899       .  S
C46          O56   1.265       .  A
C46          O47   1.267       .  A
C46         C493   1.485       .  S
O47         Al49   1.921       .  S
O48          C50   1.258       .  A
O48         Al49   1.899       .  S
Al49         O57   1.902       .  S
Al49         O59   1.924       .  S
Al49         O58   1.788       .  S
C50          O63   1.260       .  A
C50         C489   1.484       .  S
O51          C61   1.253       .  A
O51         Al53   1.874       .  S
O52          C65   1.256       .  A
O52         Al62   1.894       .  S
Al53         O66   1.900       .  S
Al53         O63   1.922       .  S
Al53         O58   1.784       .  S
O54          C61   1.259       .  A
O54         Al62   1.889       .  S
O55          C64   1.258       .  A
O55         Al62   1.898       .  S
O56         Al62   1.914       .  S
O57          C64   1.256       .  A
O58         Al62   1.795       .  S
O59          C60   1.269       .  A
C60         C482   1.477       .  S
C61         C497   1.456       .  S
C64         C538   1.474       .  S
C65          O66   1.266       .  A
C65         C486   1.474       .  S
O67          C82   1.264       .  A
O67         Al75   1.897       .  S
C68          O78   1.266       .  A
C68          O69   1.266       .  A
C68         C470   1.487       .  S
O69         Al71   1.929       .  S
O70          C72   1.257       .  A
O70         Al71   1.879       .  S
Al71         O79   1.902       .  S
Al71         O81   1.922       .  S
Al71         O80   1.791       .  S
C72          O85   1.253       .  A
C72         C498   1.459       .  S
O73          C83   1.263       .  A
O73         Al75   1.914       .  S
O74          C87   1.267       .  A
O74         Al84   1.926       .  S
Al75         O88   1.898       .  S
Al75         O85   1.892       .  S
Al75         O80   1.788       .  S
O76          C83   1.266   1_565  A
O76         Al84   1.924   1_565  S
O77          C86   1.262       .  A
O77         Al84   1.923       .  S
O78         Al84   1.911       .  S
O79          C86   1.258       .  A
O80         Al84   1.784       .  S
O81          C82   1.265       .  A
C82         C477   1.472       .  S
C83        C1017   1.481   1_545  S
C86         C518   1.487       .  S
C87          O88   1.259       .  A
C87         C465   1.477       .  S
O89         C104   1.268       .  A
O89         Al97   1.915       .  S
C90         O100   1.272       .  A
C90          O91   1.264       .  A
C90         C469   1.491       .  S
O91         Al93   1.894       .  S
O92          C94   1.251       .  A
O92         Al93   1.857       .  S
Al93        O101   1.884       .  S
Al93        O103   1.910       .  S
Al93        O102   1.795       .  S
C94         O107   1.260       .  A
C94         C462   1.472       .  S
O95         C105   1.258       .  A
O95         Al97   1.925       .  S
O96         C109   1.268       .  A
O96        Al106   1.932       .  S
Al97        O110   1.868       .  S
Al97        O107   1.920       .  S
Al97        O102   1.801       .  S
O98         C105   1.249       .  A
O98        Al106   1.860       .  S
O99         C108   1.253       .  A
O99        Al106   1.903       .  S
O100       Al106   1.949       .  S
O101        C108   1.250       .  A
O102       Al106   1.791       .  S
O103        C104   1.268       .  A
C104        C490   1.469       .  S
C105       C1029   1.467       .  S
C108        C457   1.471       .  S
C109        O110   1.257       .  A
C109        C453   1.475       .  S
O111        C126   1.269       .  A
O111       Al119   1.915       .  S
C112        O122   1.275       .  A
C112        O113   1.272       .  A
C112        C494   1.480       .  S
O113       Al115   1.903       .  S
O114        C116   1.251       .  A
O114       Al115   1.893       .  S
Al115       O123   1.870       .  S
Al115       O125   1.912       .  S
Al115       O124   1.787       .  S
C116        O129   1.256       .  A
C116        C478   1.478       .  S
O117        C127   1.254       .  A
O117       Al119   1.876       .  S
O118        C131   1.269       .  A
O118       Al128   1.932       .  S
Al119       O132   1.882       .  S
Al119       O129   1.923       .  S
Al119       O124   1.782       .  S
O120        C127   1.252       .  A
O120       Al128   1.876       .  S
O121        C130   1.260       .  A
O121       Al128   1.932       .  S
O122       Al128   1.939       .  S
O123        C130   1.246       .  A
O124       Al128   1.800       .  S
O125        C126   1.271       .  A
C126        C445   1.471       .  S
C127        C461   1.454       .  S
C130        C449   1.480       .  S
C131        O132   1.259       .  A
C131        C474   1.477       .  S
O133        C148   1.262       .  A
O133       Al141   1.868       .  S
C134        O144   1.257       .  A
C134        O135   1.280       .  A
C134        C513   1.493       .  S
O135       Al137   1.986       .  S
O136        C138   1.249       .  A
O136       Al137   1.869       .  S
Al137       O145   1.903       .  S
Al137       O147   1.972       .  S
Al137       O146   1.784       .  S
C138        O151   1.251       .  A
C138       C1078   1.472       .  S
O139        C149   1.263       .  A
O139       Al141   1.899       .  S
O140        C153   1.261       .  A
O140       Al150   1.906       .  S
Al141       O154   1.912       .  S
Al141       O151   1.910       .  S
Al141       O146   1.798       .  S
O142        C149   1.257       .  A
O142       Al150   1.881       .  S
O143        C152   1.250       .  A
O143       Al150   1.875       .  S
O144       Al150   1.867       .  S
O145        C152   1.251       .  A
O146       Al150   1.795       .  S
O147        C148   1.281       .  A
C148        C437   1.485       .  S
C149        C441   1.454       .  S
C152        C458   1.480       .  S
C153        O154   1.265       .  A
C153        C530   1.470       .  S
O155        C170   1.261       .  A
O155       Al163   1.882       .  S
C156        O166   1.265       .  A
C156        O157   1.269       .  A
C156        C526   1.491       .  S
O157       Al159   1.939       .  S
O158        C160   1.249       .  A
O158       Al159   1.850       .  S
Al159       O167   1.878       .  S
Al159       O169   1.931       .  S
Al159       O168   1.784       .  S
C160        O173   1.257       .  A
C160        C442   1.448       .  S
O161        C171   1.264       .  A
O161       Al163   1.907       .  S
O162        C175   1.272       .  A
O162       Al172   1.923       .  S
Al163       O176   1.903       .  S
Al163       O173   1.908       .  S
Al163       O168   1.780       .  S
O164        C171   1.265       .  A
O164       Al172   1.923       .  S
O165        C174   1.268       .  A
O165       Al172   1.947       .  S
O166       Al172   1.907       .  S
O167        C174   1.251       .  A
O168       Al172   1.776       .  S
O169        C170   1.265       .  A
C170        C510   1.466       .  S
C171        C506   1.474       .  S
C174        C450   1.483       .  S
C175        O176   1.262       .  A
C175        C433   1.474       .  S
O177        C192   1.271       .  A
O177       Al185   1.917       .  S
C178        O188   1.279       .  A
C178        O179   1.266       .  A
C178        C414   1.495       .  S
O179       Al181   1.888       .  S
O180        C182   1.245       .  A
O180       Al181   1.850       .  S
Al181       O189   1.868       .  S
Al181       O191   1.892       .  S
Al181       O190   1.798       .  S
C182        O195   1.256       .  A
C182        C429   1.464       .  S
O183        C193   1.258       .  A
O183       Al185   1.920       .  S
O184        C197   1.271       .  A
O184       Al194   1.942       .  S
Al185       O198   1.876       .  S
Al185       O195   1.915       .  S
Al185       O190   1.801       .  S
O186        C193   1.247       .  A
O186       Al194   1.853       .  S
O187        C196   1.251       .  A
O187       Al194   1.907       .  S
O188       Al194   1.966       .  S
O189        C196   1.245       .  A
O190       Al194   1.786       .  S
O191        C192   1.268       .  A
C192        C422   1.456       .  S
C193        C417   1.464       .  S
C196        C425   1.469       .  S
C197        O198   1.256       .  A
C197        C522   1.483       .  S
O199        C214   1.262       .  A
O199       Al207   1.913       .  S
C200        O210   1.269       .  A
C200        O201   1.268       .  A
C200        C406   1.497   1_545  S
O201       Al203   1.920       .  S
O202        C204   1.261       .  A
O202       Al203   1.894   1_565  S
Al203       O211   1.931       .  S
Al203       O213   1.943       .  S
Al203       O212   1.782       .  S
C204        O217   1.260   1_565  A
C204        C946   1.465       .  S
O205        C215   1.256       .  A
O205       Al207   1.899       .  S
O206        C219   1.266       .  A
O206       Al216   1.917       .  S
Al207       O220   1.884       .  S
Al207       O217   1.905       .  S
Al207       O212   1.786       .  S
O208        C215   1.249       .  A
O208       Al216   1.857       .  S
O209        C218   1.252       .  A
O209       Al216   1.886       .  S
O210       Al216   1.938       .  S
O211        C218   1.261       .  A
O212       Al216   1.788       .  S
O213        C214   1.276       .  A
C214        C502   1.489       .  S
C215        C430   1.452       .  S
C218        C409   1.480       .  S
C219        O220   1.260       .  A
C219        C397   1.466       .  S
O221        C236   1.263       .  A
O221       Al229   1.892       .  S
C222        O232   1.263       .  A
C222        O223   1.274       .  A
C222        C390   1.482       .  S
O223       Al225   1.944       .  S
O224        C226   1.250       .  A
O224       Al225   1.865       .  S
Al225       O233   1.897       .  S
Al225       O235   1.913       .  S
Al225       O234   1.790       .  S
C226        O239   1.254       .  A
C226        C386   1.476       .  S
O227        C237   1.259       .  A
O227       Al229   1.905       .  S
O228        C241   1.263       .  A
O228       Al238   1.903       .  S
Al229       O242   1.918       .  S
Al229       O239   1.914       .  S
Al229       O234   1.796       .  S
O230        C237   1.254       .  A
O230       Al238   1.890       .  S
O231        C240   1.250       .  A
O231       Al238   1.880       .  S
O232       Al238   1.879       .  S
O233        C240   1.248       .  A
O234       Al238   1.801       .  S
O235        C236   1.267       .  A
C236        C481   1.469       .  S
C237        C393   1.465       .  S
C240        C426   1.478       .  S
C241        O242   1.270       .  A
C241        C381   1.472       .  S
O243        C258   1.265       .  A
O243       Al251   1.907       .  S
C244        O254   1.269       .  A
C244        O245   1.266       .  A
C244        C369   1.489   1_545  S
O245       Al247   1.911       .  S
O246        C248   1.253       .  A
O246       Al247   1.878       .  S
Al247       O255   1.910       .  S
Al247       O257   1.923       .  S
Al247       O256   1.802       .  S
C248        O261   1.260       .  A
C248        C394   1.467       .  S
O249        C259   1.257   1_545  A
O249       Al251   1.924       .  S
O250        C263   1.266       .  A
O250       Al260   1.923       .  S
Al251       O264   1.881       .  S
Al251       O261   1.909       .  S
Al251       O256   1.800       .  S
O252        C259   1.250       .  A
O252       Al260   1.866   1_565  S
O253        C262   1.253       .  A
O253       Al260   1.898       .  S
O254       Al260   1.933       .  S
O255        C262   1.258       .  A
O256       Al260   1.788       .  S
O257        C258   1.272       .  A
C258        C377   1.472       .  S
C259        C917   1.466       .  S
C262        C410   1.482       .  S
C263        O264   1.258       .  A
C263        C466   1.472       .  S
O265        C280   1.260       .  A
O265       Al273   1.882       .  S
C266        O276   1.268       .  A
C266        O267   1.272       .  A
C266        C370   1.483       .  S
O267       Al269   1.943       .  S
O268        C270   1.254       .  A
O268       Al269   1.876       .  S
Al269       O277   1.910       .  S
Al269       O279   1.926       .  S
Al269       O278   1.796       .  S
C270        O283   1.255       .  A
C270        C365   1.459       .  S
O271        C281   1.259       .  A
O271       Al273   1.918       .  S
O272        C285   1.268       .  A
O272       Al282   1.911       .  S
Al273       O286   1.923       .  S
Al273       O283   1.891       .  S
Al273       O278   1.786       .  S
O274        C281   1.258       .  A
O274       Al282   1.905       .  S
O275        C284   1.251       .  A
O275       Al282   1.895       .  S
O276       Al282   1.899       .  S
O277        C284   1.258       .  A
O278       Al282   1.785       .  S
O279        C280   1.266       .  A
C280        C385   1.471       .  S
C281        C926   1.478       .  S
C284        C361   1.480       .  S
C285        O286   1.266       .  A
C285        C454   1.473       .  S
O287        C302   1.262       .  A
O287       Al295   1.884       .  S
C288        O298   1.264       .  A
C288        O289   1.272       .  A
C288        C389   1.480       .  S
O289       Al291   1.934       .  S
O290        C292   1.251       .  A
O290       Al291   1.875       .  S
Al291       O299   1.891       .  S
Al291       O301   1.914       .  S
Al291       O300   1.796       .  S
C292        O305   1.253       .  A
C292        C378   1.481       .  S
O293        C303   1.258       .  A
O293       Al295   1.903       .  S
O294        C307   1.266       .  A
O294       Al304   1.916       .  S
Al295       O308   1.911       .  S
Al295       O305   1.913       .  S
Al295       O300   1.802       .  S
O296        C303   1.255       .  A
O296       Al304   1.887       .  S
O297        C306   1.252       .  A
O297       Al304   1.894       .  S
O298       Al304   1.888       .  S
O299        C306   1.248       .  A
O300       Al304   1.806       .  S
O301        C302   1.267       .  A
C302        C446   1.467       .  S
C303        C366   1.469       .  S
C306        C357   1.482       .  S
C307        O308   1.267       .  A
C307        C374   1.482       .  S
O309        C324   1.261       .  A
O309       Al317   1.891       .  S
C310        O320   1.266       .  A
C310        O311   1.277       .  A
C310        C405   1.494       .  S
O311       Al313   1.957       .  S
O312        C314   1.253       .  A
O312       Al313   1.877       .  S
Al313       O321   1.919       .  S
Al313       O323   1.935       .  S
Al313       O322   1.798       .  S
C314        O327   1.250       .  A
C314        C965   1.468       .  S
O315        C325   1.251       .  A
O315       Al317   1.896       .  S
O316        C329   1.264       .  A
O316       Al326   1.904       .  S
Al317       O330   1.915       .  S
Al317       O327   1.888       .  S
Al317       O322   1.804       .  S
O318        C325   1.247       .  A
O318       Al326   1.853       .  S
O319        C328   1.242       .  A
O319       Al326   1.857       .  S
O320       Al326   1.892       .  S
O321        C328   1.254       .  A
O322       Al326   1.804       .  S
O323        C324   1.271       .  A
C324        C438   1.482       .  S
C325        C353   1.457       .  S
C328        C362   1.476       .  S
C329        O330   1.271       .  A
C329        C418   1.476       .  S
O331        C346   1.260       .  A
O331       Al339   1.878       .  S
C332        O342   1.266       .  A
C332        O333   1.270       .  A
C332        C413   1.490       .  S
O333       Al335   1.941       .  S
O334        C336   1.250       .  A
O334       Al335   1.860       .  S
Al335       O343   1.879       .  S
Al335       O345   1.928       .  S
Al335       O344   1.786       .  S
C336        O349   1.252       .  A
C336        C354   1.444       .  S
O337        C347   1.261       .  A
O337       Al339   1.900       .  S
O338        C351   1.272       .  A
O338       Al348   1.932       .  S
Al339       O352   1.892       .  S
Al339       O349   1.884       .  S
Al339       O344   1.781       .  S
O340        C347   1.266       .  A
O340       Al348   1.923       .  S
O341        C350   1.263       .  A
O341       Al348   1.936       .  S
O342       Al348   1.906       .  S
O343        C350   1.251       .  A
O344       Al348   1.781       .  S
O345        C346   1.267       .  A
C346        C401   1.464       .  S
C347        C398   1.471       .  S
C350        C358   1.478       .  S
C351        O352   1.259       .  A
C351        C434   1.477       .  S
C353        C354   1.343   1_556  D
C353        H355   1.087       .  S
C354        H356   1.086       .  S
C357        C358   1.342   1_455  D
C357        H359   1.087       .  S
C358        H360   1.087   1_655  S
C361        C362   1.339       .  D
C361        H363   1.087       .  S
C362        H364   1.087       .  S
C365        C366   1.346   1_556  D
C365        H367   1.087   1_556  S
C366        H368   1.087       .  S
C369        C914   1.349   1_564  D
C369        H371   1.087       .  S
C370        C913   1.353   1_556  D
C370        H372   1.087       .  S
C373        C803   1.468       .  S
C373        C374   1.349       .  D
C373        H375   1.088       .  S
C374        H376   1.086       .  S
C377        C378   1.347       .  D
C377        H379   1.088       .  S
C378        H380   1.086       .  S
C381        C382   1.344       .  D
C381        H383   1.086       .  S
C382        C825   1.459       .  S
C382        H384   1.088       .  S
C385        C386   1.347       .  D
C385        H387   1.088       .  S
C386        H388   1.086       .  S
C389        C390   1.353   1_554  D
C389        H391   1.087       .  S
C390        H392   1.086       .  S
C393        C394   1.351   1_556  D
C393        H395   1.087   1_556  S
C394        H396   1.087       .  S
C397        C398   1.344       .  D
C397        H399   1.087       .  S
C398        H400   1.087       .  S
C401        C402   1.345       .  D
C401        H403   1.088       .  S
C402        C748   1.474       .  S
C402        H948   1.086       .  S
H404        C946   1.086       .  S
C405        C950   1.356   1_556  D
C405        H951   1.086       .  S
C406        C949   1.357   1_564  D
C406        H952   1.086       .  S
H407        C949   1.087       .  S
H408        C950   1.087       .  S
C409        C410   1.343       .  D
C409        H411   1.087       .  S
C410        H412   1.087       .  S
C413        C414   1.356   1_554  D
C413        H415   1.087       .  S
C414        H416   1.086       .  S
C417        C418   1.344       .  D
C417        H419   1.088       .  S
C418        H420   1.086       .  S
C421        C858   1.472       .  S
C421        C422   1.346       .  D
C421        H423   1.086       .  S
C422        H424   1.087       .  S
C425        C426   1.342   1_655  D
C425        H427   1.088   1_655  S
C426        H428   1.087       .  S
C429        C430   1.349   1_556  D
C429        H431   1.087       .  S
C430        H432   1.087       .  S
C433        C434   1.358       .  D
C433        H435   1.086       .  S
C434        H436   1.086       .  S
C437        C438   1.358       .  D
C437        H439   1.086       .  S
C438        H440   1.086       .  S
C441        C442   1.346       .  D
C441        H443   1.087       .  S
C442        H444   1.086       .  S
C445        C446   1.348       .  D
C445        H447   1.087       .  S
C446        H448   1.087       .  S
C449        C450   1.337       .  D
C449        H451   1.087       .  S
C450        H452   1.087       .  S
C453        C454   1.351       .  D
C453        H455   1.087       .  S
C454        H456   1.087       .  S
C457        C458   1.345   1_455  D
C457        H459   1.087       .  S
C458        H460   1.087       .  S
C461        C462   1.349       .  D
C461        H463   1.087       .  S
C462        H464   1.086       .  S
C465        C466   1.351       .  D
C465        H467   1.086       .  S
C466        H468   1.087       .  S
C469       C1014   1.352       .  D
C469       H1015   1.086       .  S
C470       C1013   1.354       .  D
C470       H1016   1.087   1_545  S
H471       C1013   1.086       .  S
H472       C1014   1.087       .  S
C473        C627   1.486       .  S
C473        C474   1.348       .  D
C473       H1019   1.087       .  S
C474        H476   1.087       .  S
H475       C1017   1.086       .  S
C477        C478   1.351       .  D
C477        H479   1.087       .  S
C478        H480   1.086       .  S
C481        C482   1.350       .  D
C481        H483   1.087       .  S
C482        H484   1.087       .  S
C485        C649   1.464       .  S
C485        C486   1.335       .  D
C485        H487   1.089       .  S
C486        H488   1.086       .  S
C489        C490   1.348       .  D
C489        H491   1.086       .  S
C490        H492   1.087       .  S
C493        C494   1.353       .  D
C493        H495   1.087       .  S
C494        H496   1.087       .  S
C497        C498   1.338       .  D
C497        H499   1.087       .  S
C498        H500   1.087       .  S
C501        C502   1.364       .  D
C501        H503   1.086       .  S
C502        H504   1.086       .  S
C505        C506   1.349       .  D
C505        H507   1.087       .  S
C506        H508   1.087       .  S
C509        C572   1.476       .  S
C509        C510   1.349       .  D
C509        H511   1.086       .  S
C510        H512   1.088       .  S
C513       C1058   1.342       .  D
C513        H515   1.087       .  S
C514       C1057   1.341   1_545  D
C514        H516   1.086       .  S
C517        C518   1.347   1_655  D
C517        H519   1.087   1_655  S
C518        H520   1.087       .  S
C521        C522   1.357       .  D
C521        H523   1.086       .  S
C522        H524   1.086       .  S
C525        C526   1.355       .  D
C525        H527   1.086       .  S
C526        H528   1.087       .  S
C529        C530   1.346       .  D
C529        H531   1.088       .  S
C530        H532   1.086       .  S
C533        C534   1.344       .  D
C533        H535   1.089       .  S
C534        C682   1.470       .  S
C534        H536   1.086       .  S
C537        C538   1.340       .  D
C537        H539   1.087       .  S
C538        H540   1.087       .  S
C541        C542   1.347       .  D
C541        H543   1.087       .  S
C542        H544   1.088       .  S
O545        C560   1.265       .  A
O545       Al553   1.909       .  S
C546        O556   1.269       .  A
C546        O547   1.262       .  A
C546       C1069   1.490       .  S
O547       Al549   1.895       .  S
O548        C550   1.253       .  A
O548       Al549   1.856       .  S
Al549       O557   1.882       .  S
Al549       O559   1.906       .  S
Al549       O558   1.794       .  S
C550        O563   1.259       .  A
C550       C1085   1.466       .  S
O551        C561   1.256       .  A
O551       Al553   1.918       .  S
O552        C565   1.267       .  A
O552       Al562   1.928       .  S
Al553       O566   1.869       .  S
Al553       O563   1.912       .  S
Al553       O558   1.803       .  S
O554        C561   1.252       .  A
O554       Al562   1.867       .  S
O555        C564   1.257       .  A
O555       Al562   1.911       .  S
O556       Al562   1.942       .  S
O557        C564   1.252       .  A
O558       Al562   1.789       .  S
O559        C560   1.266       .  A
C560       C1077   1.466       .  S
C561       C1073   1.462       .  S
C564       C1081   1.472       .  S
C565        O566   1.258       .  A
C565       C1065   1.469       .  S
O567        C582   1.267       .  A
O567       Al575   1.912       .  S
C568        O578   1.269       .  A
C568        O569   1.276       .  A
C568       C1058   1.497       .  S
O569       Al571   1.934       .  S
O570        C572   1.248       .  A
O570       Al571   1.867       .  S
Al571       O579   1.879       .  S
Al571       O581   1.938       .  S
Al571       O580   1.780       .  S
C572        O585   1.255       .  A
O573        C583   1.254       .  A
O573       Al575   1.872       .  S
O574        C587   1.264       .  A
O574       Al584   1.913       .  S
Al575       O588   1.885       .  S
Al575       O585   1.928       .  S
Al575       O580   1.788       .  S
O576        C583   1.253       .  A
O576       Al584   1.873       .  S
O577        C586   1.261       .  A
O577       Al584   1.932       .  S
O578       Al584   1.929       .  S
O579        C586   1.249       .  A
O580       Al584   1.802       .  S
O581        C582   1.278       .  A
C582       C1045   1.485       .  S
C583       C1086   1.450       .  S
C586       C1061   1.482       .  S
C587        O588   1.258       .  A
C587       C1049   1.473       .  S
O589        C604   1.260       .  A
O589       Al597   1.885       .  S
C590        O600   1.264       .  A
C590        O591   1.275       .  A
C590       C1037   1.493       .  S
O591       Al593   1.955       .  S
O592        C594   1.249       .  A
O592       Al593   1.848       .  S
Al593       O601   1.899       .  S
Al593       O603   1.924       .  S
Al593       O602   1.789       .  S
C594        O607   1.255       .  A
C594       C1033   1.467       .  S
O595        C605   1.258       .  A
O595       Al597   1.906       .  S
O596        C609   1.268       .  A
O596       Al606   1.914       .  S
Al597       O610   1.916       .  S
Al597       O607   1.911       .  S
Al597       O602   1.800       .  S
O598        C605   1.251       .  A
O598       Al606   1.871       .  S
O599        C608   1.252       .  A
O599       Al606   1.885       .  S
O600       Al606   1.891       .  S
O601        C608   1.249       .  A
O602       Al606   1.797       .  S
O603        C604   1.268       .  A
C604       C1026   1.473       .  S
C605       C1041   1.462       .  S
C608       C1082   1.480       .  S
C609        O610   1.271       .  A
C609       C1030   1.479       .  S
O611        C626   1.263       .  A
O611       Al619   1.890       .  S
C612        O622   1.263       .  A
C612        O613   1.269       .  A
C612       C1014   1.487       .  S
O613       Al615   1.940       .  S
O614        C616   1.252       .  A
O614       Al615   1.863       .  S
Al615       O623   1.880       .  S
Al615       O625   1.926       .  S
Al615       O624   1.789       .  S
C616        O629   1.257       .  A
C616       C1042   1.451       .  S
O617        C627   1.264       .  A
O617       Al619   1.912       .  S
O618        C631   1.269       .  A
O618       Al628   1.923       .  S
Al619       O632   1.912       .  S
Al619       O629   1.903       .  S
Al619       O624   1.780       .  S
O620        C627   1.269       .  A
O620       Al628   1.944       .  S
O621        C630   1.268       .  A
O621       Al628   1.950       .  S
O622       Al628   1.899       .  S
O623        C630   1.251       .  A
O624       Al628   1.779       .  S
O625        C626   1.265       .  A
C626       C1021   1.467       .  S
C630       C1062   1.485       .  S
C631        O632   1.262       .  A
C631       C1009   1.477       .  S
O633        C648   1.263       .  A
O633       Al641   1.891       .  S
C634        O644   1.268   1_565  A
C634        O635   1.267       .  A
C634       C1013   1.488   1_565  S
O635       Al637   1.920       .  S
O636        C638   1.252       .  A
O636       Al637   1.863       .  S
Al637       O645   1.892       .  S
Al637       O647   1.897       .  S
Al637       O646   1.787       .  S
C638        O651   1.256       .  A
C638       C1006   1.464       .  S
O639        C649   1.268   1_565  A
O639       Al641   1.932       .  S
O640        C653   1.276       .  A
O640       Al650   1.940       .  S
Al641       O654   1.893       .  S
Al641       O651   1.905       .  S
Al641       O646   1.790       .  S
O642        C649   1.253       .  A
O642       Al650   1.875   1_545  S
O643        C652   1.257       .  A
O643       Al650   1.911       .  S
O644       Al650   1.920   1_545  S
O645        C652   1.251       .  A
O646       Al650   1.782       .  S
O647        C648   1.261       .  A
C648       C1034   1.462       .  S
C652       C1001   1.478       .  S
C653        O654   1.262       .  A
C653        C997   1.482       .  S
O655        C670   1.268       .  A
O655       Al663   1.927       .  S
C656        O666   1.275       .  A
C656        O657   1.271       .  A
C656       C1038   1.488       .  S
O657       Al659   1.907       .  S
O658        C660   1.252       .  A
O658       Al659   1.879       .  S
Al659       O667   1.866       .  S
Al659       O669   1.922       .  S
Al659       O668   1.786       .  S
C660        O673   1.259       .  A
C660       C1022   1.477       .  S
O661        C671   1.251       .  A
O661       Al663   1.881       .  S
O662        C675   1.270       .  A
O662       Al672   1.927       .  S
Al663       O676   1.884       .  S
Al663       O673   1.930       .  S
Al663       O668   1.789       .  S
O664        C671   1.251       .  A
O664       Al672   1.872       .  S
O665        C674   1.256       .  A
O665       Al672   1.923       .  S
O666       Al672   1.946       .  S
O667        C674   1.243       .  A
O668       Al672   1.800       .  S
O669        C670   1.272       .  A
C670        C989   1.481       .  S
C671       C1005   1.461       .  S
C674        C993   1.479       .  S
C675        O676   1.263       .  A
C675       C1018   1.472       .  S
O677        C692   1.263       .  A
O677       Al685   1.868       .  S
C678        O688   1.255       .  A
C678        O679   1.274       .  A
C678       C1057   1.492       .  S
O679       Al681   1.968       .  S
O680        C682   1.250       .  A
O680       Al681   1.875   1_545  S
Al681       O689   1.890       .  S
Al681       O691   1.968       .  S
Al681       O690   1.781       .  S
C682        O695   1.251   1_545  A
O683        C693   1.265       .  A
O683       Al685   1.893       .  S
O684        C697   1.262       .  A
O684       Al694   1.915       .  S
Al685       O698   1.895       .  S
Al685       O695   1.914       .  S
Al685       O690   1.796       .  S
O686        C693   1.263       .  A
O686       Al694   1.892       .  S
O687        C696   1.257       .  A
O687       Al694   1.904       .  S
O688       Al694   1.872       .  S
O689        C696   1.253       .  A
O690       Al694   1.798       .  S
O691        C692   1.279       .  A
C692        C981   1.478       .  S
C693        C985   1.454       .  S
C696       C1002   1.478       .  S
C697        O698   1.261       .  A
C697       C1074   1.477       .  S
O699        C714   1.261       .  A
O699       Al707   1.883       .  S
C700        O710   1.263       .  A
C700        O701   1.269       .  A
C700       C1070   1.486       .  S
O701       Al703   1.941       .  S
O702        C704   1.251       .  A
O702       Al703   1.855       .  S
Al703       O711   1.877       .  S
Al703       O713   1.941       .  S
Al703       O712   1.786       .  S
C704        O717   1.257       .  A
C704        C986   1.448       .  S
O705        C715   1.262       .  A
O705       Al707   1.901       .  S
O706        C719   1.269       .  A
O706       Al716   1.921       .  S
Al707       O720   1.907       .  S
Al707       O717   1.905       .  S
Al707       O712   1.777       .  S
O708        C715   1.268       .  A
O708       Al716   1.940       .  S
O709        C718   1.269       .  A
O709       Al716   1.949       .  S
O710       Al716   1.899       .  S
O711        C718   1.252       .  A
O712       Al716   1.777       .  S
O713        C714   1.267       .  A
C714       C1054   1.470       .  S
C715       C1050   1.478       .  S
C718        C994   1.481       .  S
C719        O720   1.262       .  A
C719        C977   1.477       .  S
O721        C736   1.259       .  A
O721       Al729   1.879       .  S
C722        O732   1.268       .  A
C722        O723   1.270       .  A
C722        C958   1.482       .  S
O723       Al725   1.931       .  S
O724        C726   1.252       .  A
O724       Al725   1.862       .  S
Al725       O733   1.899       .  S
Al725       O735   1.924       .  S
Al725       O734   1.781       .  S
C726        O739   1.257       .  A
C726        C973   1.463       .  S
O727        C737   1.263       .  A
O727       Al729   1.913       .  S
O728        C741   1.271       .  A
O728       Al738   1.922       .  S
Al729       O742   1.909       .  S
Al729       O739   1.911       .  S
Al729       O734   1.783       .  S
O730        C737   1.264       .  A
O730       Al738   1.925       .  S
O731        C740   1.262       .  A
O731       Al738   1.928       .  S
O732       Al738   1.906       .  S
O733        C740   1.255       .  A
O734       Al738   1.779       .  S
O735        C736   1.267       .  A
C736        C966   1.466       .  S
C737        C961   1.478       .  S
C740        C969   1.487       .  S
C741        O742   1.265       .  A
C741       C1066   1.474       .  S
O743        C758   1.263       .  A
O743       Al751   1.918       .  S
C744        O754   1.269       .  A
C744        O745   1.266       .  A
C744        C950   1.489       .  S
O745       Al747   1.907       .  S
O746        C748   1.262       .  A
O746       Al747   1.899       .  S
Al747       O755   1.908       .  S
Al747       O757   1.928       .  S
Al747       O756   1.781       .  S
C748        O761   1.262       .  A
O749        C759   1.255       .  A
O749       Al751   1.898       .  S
O750        C763   1.268       .  A
O750       Al760   1.926       .  S
Al751       O764   1.888       .  S
Al751       O761   1.917       .  S
Al751       O756   1.787       .  S
O752        C759   1.252       .  A
O752       Al760   1.870       .  S
O753        C762   1.257       .  A
O753       Al760   1.902       .  S
O754       Al760   1.938       .  S
O755        C762   1.257       .  A
O756       Al760   1.792       .  S
O757        C758   1.271       .  A
C758       C1046   1.483       .  S
C759        C974   1.459       .  S
C762        C953   1.482       .  S
C763        O764   1.263       .  A
C763        C941   1.470       .  S
O765        C780   1.263       .  A
O765       Al773   1.904       .  S
C766        O776   1.270       .  A
C766        O767   1.269       .  A
C766        C934   1.484       .  S
O767       Al769   1.907       .  S
O768        C770   1.258       .  A
O768       Al769   1.907       .  S
Al769       O777   1.895       .  S
Al769       O779   1.930       .  S
Al769       O778   1.786       .  S
C770        O783   1.259       .  A
C770        C930   1.481       .  S
O771        C781   1.253       .  A
O771       Al773   1.879       .  S
O772        C785   1.265       .  A
O772       Al782   1.920       .  S
Al773       O786   1.883       .  S
Al773       O783   1.918       .  S
Al773       O778   1.785       .  S
O774        C781   1.252       .  A
O774       Al782   1.876       .  S
O775        C784   1.258       .  A
O775       Al782   1.920       .  S
O776       Al782   1.932       .  S
O777        C784   1.253       .  A
O778       Al782   1.802       .  S
O779        C780   1.272       .  A
C780       C1025   1.479       .  S
C781        C937   1.454       .  S
C784        C970   1.483       .  S
C785        O786   1.260       .  A
C785        C925   1.468       .  S
O787        C802   1.267       .  A
O787       Al795   1.907       .  S
C788        O798   1.277       .  A
C788        O789   1.266       .  A
C788        C913   1.490       .  S
O789       Al791   1.885       .  S
O790        C792   1.250       .  A
O790       Al791   1.864       .  S
Al791       O799   1.886       .  S
Al791       O801   1.905       .  S
Al791       O800   1.800       .  S
C792        O805   1.257       .  A
C792        C938   1.469       .  S
O793        C803   1.256       .  A
O793       Al795   1.919       .  S
O794        C807   1.271       .  A
O794       Al804   1.938       .  S
Al795       O808   1.867       .  S
Al795       O805   1.914       .  S
Al795       O800   1.803       .  S
O796        C803   1.248       .  A
O796       Al804   1.860       .  S
O797        C806   1.251       .  A
O797       Al804   1.903       .  S
O798       Al804   1.955       .  S
O799        C806   1.247       .  A
O800       Al804   1.789       .  S
O801        C802   1.270       .  A
C802        C921   1.462       .  S
C806        C954   1.479       .  S
C807        O808   1.257       .  A
C807       C1010   1.479       .  S
O809        C824   1.269       .  A
O809       Al817   1.913       .  S
C810        O820   1.274       .  A
C810        O811   1.269       .  A
C810        C914   1.490   1_565  S
O811       Al813   1.906       .  S
O812        C814   1.246       .  A
O812       Al813   1.853       .  S
Al813       O821   1.879       .  S
Al813       O823   1.911       .  S
Al813       O822   1.800       .  S
C814        O827   1.254       .  A
C814        C909   1.464       .  S
O815        C825   1.256   1_565  A
O815       Al817   1.911       .  S
O816        C829   1.268       .  A
O816       Al826   1.928       .  S
Al817       O830   1.873       .  S
Al817       O827   1.909       .  S
Al817       O822   1.803       .  S
O818        C825   1.248       .  A
O818       Al826   1.856   1_545  S
O819        C828   1.254       .  A
O819       Al826   1.911       .  S
O820       Al826   1.943       .  S
O821        C828   1.246       .  A
O822       Al826   1.791       .  S
O823        C824   1.272       .  A
C824        C929   1.467       .  S
C828        C905   1.478       .  S
C829        O830   1.255       .  A
C829        C998   1.476       .  S
O831        C846   1.264       .  A
O831       Al839   1.888       .  S
C832        O842   1.263       .  A
C832        O833   1.274       .  A
C832        C933   1.490       .  S
O833       Al835   1.952       .  S
O834        C836   1.250       .  A
O834       Al835   1.870       .  S
Al835       O843   1.895       .  S
Al835       O845   1.937       .  S
Al835       O844   1.791       .  S
C836        O849   1.249       .  A
C836        C922   1.472       .  S
O837        C847   1.258       .  A
O837       Al839   1.893       .  S
O838        C851   1.266       .  A
O838       Al848   1.918       .  S
Al839       O852   1.906       .  S
Al839       O849   1.900       .  S
Al839       O844   1.797       .  S
O840        C847   1.256       .  A
O840       Al848   1.895       .  S
O841        C850   1.253       .  A
O841       Al848   1.893       .  S
O842       Al848   1.885       .  S
O843        C850   1.250       .  A
O844       Al848   1.805       .  S
O845        C846   1.272       .  A
C846        C990   1.479       .  S
C847        C910   1.457       .  S
C850        C901   1.483       .  S
C851        O852   1.265       .  A
C851        C918   1.476       .  S
O853        C868   1.262       .  A
O853       Al861   1.914       .  S
C854        O864   1.270       .  A
C854        O855   1.269   1_565  A
C854        C949   1.498   1_565  S
O855       Al857   1.923   1_545  S
O856        C858   1.259       .  A
O856       Al857   1.890   1_545  S
Al857       O865   1.905       .  S
Al857       O867   1.934       .  S
Al857       O866   1.783       .  S
C858        O871   1.262   1_545  A
O859        C869   1.256       .  A
O859       Al861   1.898       .  S
O860        C873   1.267       .  A
O860       Al870   1.926       .  S
Al861       O874   1.889       .  S
Al861       O871   1.916       .  S
Al861       O866   1.788       .  S
O862        C869   1.255       .  A
O862       Al870   1.878       .  S
O863        C872   1.259       .  A
O863       Al870   1.910       .  S
O864       Al870   1.940       .  S
O865        C872   1.255       .  A
O866       Al870   1.793       .  S
O867        C868   1.272       .  A
C868        C982   1.480       .  S
C869        C897   1.464       .  S
C872        C906   1.483       .  S
C873        O874   1.261       .  A
C873        C962   1.472       .  S
O875        C890   1.260       .  A
O875       Al883   1.882       .  S
C876        O886   1.267       .  A
C876        O877   1.267       .  A
C876        C957   1.483       .  S
O877       Al879   1.921       .  S
O878        C880   1.254       .  A
O878       Al879   1.873       .  S
Al879       O887   1.884       .  S
Al879       O889   1.905       .  S
Al879       O888   1.783       .  S
C880        O893   1.256       .  A
C880        C898   1.467       .  S
O881        C891   1.264       .  A
O881       Al883   1.913       .  S
O882        C895   1.271       .  A
O882       Al892   1.927       .  S
Al883       O896   1.907       .  S
Al883       O893   1.909       .  S
Al883       O888   1.783       .  S
O884        C891   1.265       .  A
O884       Al892   1.920       .  S
O885        C894   1.262       .  A
O885       Al892   1.936       .  S
O886       Al892   1.911       .  S
O887        C894   1.252       .  A
O888       Al892   1.782       .  S
O889        C890   1.263       .  A
C890        C945   1.457       .  S
C891        C942   1.477       .  S
C894        C902   1.480       .  S
C895        O896   1.263       .  A
C895        C978   1.478       .  S
C897        C898   1.345   1_556  D
C897        H899   1.087       .  S
C898        H900   1.086       .  S
C901        C902   1.344   1_455  D
C901        H903   1.086   1_455  S
C902        H904   1.087       .  S
C905        C906   1.343       .  D
C905        H907   1.087       .  S
C906        H908   1.087       .  S
C909        C910   1.349   1_556  D
C909        H911   1.087   1_556  S
C910        H912   1.087       .  S
C913        H915   1.086       .  S
C914        H916   1.086       .  S
C917        C918   1.348       .  D
C917        H919   1.089       .  S
C918        H920   1.086       .  S
C921        C922   1.342       .  D
C921        H923   1.088       .  S
C922        H924   1.086       .  S
C925        C926   1.348       .  D
C925        H927   1.088       .  S
C926        H928   1.086       .  S
C929        C930   1.347       .  D
C929        H931   1.087       .  S
C930        H932   1.086       .  S
C933        C934   1.355   1_554  D
C933        H935   1.086       .  S
C934        H936   1.087       .  S
C937        C938   1.347   1_556  D
C937        H939   1.087       .  S
C938        H940   1.087       .  S
C941        C942   1.348       .  D
C941        H943   1.087       .  S
C942        H944   1.086       .  S
C945        C946   1.344       .  D
C945        H947   1.088       .  S
C953        C954   1.345       .  D
C953        H955   1.087       .  S
C954        H956   1.087       .  S
C957        C958   1.352   1_554  D
C957        H959   1.087       .  S
C958        H960   1.087       .  S
C961        C962   1.348       .  D
C961        H963   1.086       .  S
C962        H964   1.087       .  S
C965        C966   1.341       .  D
C965        H967   1.086       .  S
C966        H968   1.088       .  S
C969        C970   1.345   1_655  D
C969        H971   1.087       .  S
C970        H972   1.087   1_455  S
C973        C974   1.346   1_556  D
C973        H975   1.087       .  S
C974        H976   1.087       .  S
C977        C978   1.356       .  D
C977        H979   1.086       .  S
C978        H980   1.087       .  S
C981        C982   1.356       .  D
C981        H983   1.086       .  S
C982        H984   1.087       .  S
C985        C986   1.343       .  D
C985        H987   1.087       .  S
C986        H988   1.086       .  S
C989        C990   1.353       .  D
C989        H991   1.087       .  S
C990        H992   1.086       .  S
C993        C994   1.337       .  D
C993        H995   1.087       .  S
C994        H996   1.087       .  S
C997        C998   1.359       .  D
C997        H999   1.086       .  S
C998       H1000   1.086       .  S
C1001      C1002   1.345   1_455  D
C1001      H1003   1.087       .  S
C1002      H1004   1.087       .  S
C1005      C1006   1.347       .  D
C1005      H1007   1.088       .  S
C1006      H1008   1.087       .  S
C1009      C1010   1.356       .  D
C1009      H1011   1.086       .  S
C1010      H1012   1.086       .  S
C1017      C1018   1.347       .  D
C1018      H1020   1.088       .  S
C1021      C1022   1.350       .  D
C1021      H1023   1.088       .  S
C1022      H1024   1.086       .  S
C1025      C1026   1.354       .  D
C1025      H1027   1.086       .  S
C1026      H1028   1.087       .  S
C1029      C1030   1.347       .  D
C1029      H1031   1.088       .  S
C1030      H1032   1.085       .  S
C1033      C1034   1.347       .  D
C1033      H1035   1.086       .  S
C1034      H1036   1.088       .  S
C1037      C1038   1.354       .  D
C1037      H1039   1.086       .  S
C1038      H1040   1.087       .  S
C1041      C1042   1.346       .  D
C1041      H1043   1.087       .  S
C1042      H1044   1.086       .  S
C1045      C1046   1.359       .  D
C1045      H1047   1.086       .  S
C1046      H1048   1.086       .  S
C1049      C1050   1.346       .  D
C1049      H1051   1.087       .  S
C1050      H1052   1.087       .  S
C1053      C1054   1.349       .  D
C1053      H1055   1.086       .  S
C1054      H1056   1.088       .  S
C1057      H1059   1.087       .  S
C1058      H1060   1.086       .  S
C1061      C1062   1.339   1_655  D
C1061      H1063   1.087   1_655  S
C1062      H1064   1.087       .  S
C1065      C1066   1.352       .  D
C1065      H1067   1.086       .  S
C1066      H1068   1.087       .  S
C1069      C1070   1.351       .  D
C1069      H1071   1.086       .  S
C1070      H1072   1.087       .  S
C1073      C1074   1.350       .  D
C1073      H1075   1.088       .  S
C1074      H1076   1.086       .  S
C1077      C1078   1.345       .  D
C1077      H1079   1.088       .  S
C1078      H1080   1.086       .  S
C1081      C1082   1.343       .  D
C1081      H1083   1.088       .  S
C1082      H1084   1.086       .  S
C1085      C1086   1.346       .  D
C1085      H1087   1.087       .  S
C1086      H1088   1.087       .  S
