geometry optimzed in LAMMPS
_audit_creation_date              2020-12-01 
_audit_creation_method            'lammps2cif' 
_symmetry_space_group_name_H-M    'P1' 
_symmetry_Int_Tables_number       1 
_symmetry_cell_setting            triclinic 
loop_ 
_symmetry_equiv_pos_as_xyz 
  x,y,z 
_cell_length_a                    46.75572384 
_cell_length_b                    36.42313423975137 
_cell_length_c                    58.79571751665222 
_cell_angle_alpha                 90.30795387978819 
_cell_angle_beta                  89.99870396861972 
_cell_angle_gamma                 89.92109425750742 
loop_ 
_atom_site_label 
_atom_site_type_symbol 
_atom_site_fract_x 
_atom_site_fract_y 
_atom_site_fract_z 
_atom_site_charge 
O1          O  0.91274993  0.26761549  0.99407978    -0.81800
C2          C  0.86975014  0.12413678  0.00751267     0.97600
O3          O  0.86013595  0.14868059  0.99458695    -0.70900
O4          O  0.84753868  0.20874773  0.01784541    -0.74500
Al5        Al  0.86883276  0.19969373  0.99098701     1.49000
C6          C  0.85041879  0.23802496  0.02913700     0.92900
O7          O  0.91223383  0.21646177  0.04924279    -0.80700
O8          O  0.95680464  0.18651174  0.99575674    -0.74200
Al9        Al  0.91190119  0.24018594  0.02119765     1.90100
O10         O  0.93448037  0.16592846  0.03829006    -0.73300
O11         O  0.91674061  0.14731846  0.97482837    -0.73200
O12         O  0.89363544  0.12830869  0.01720249    -0.78800
O13         O  0.88707088  0.19056901  0.96328781    -0.77000
O14         O  0.90160519  0.19966866  0.00627929    -1.13200
O15         O  0.86981606  0.25112104  0.98300494    -0.72400
C16         C  0.89059027  0.27335296  0.98247729     0.98400
C17         C  0.92587708  0.18764952  0.05385588     0.94800
Al18       Al  0.92373057  0.16013519  0.00654489     1.55600
O19         O  0.87357757  0.25588565  0.02855400    -0.77000
C20         C  0.90387974  0.16442023  0.95906626     0.98900
C21         C  0.96718059  0.21523607  0.00456424     0.93800
O22         O  0.95238245  0.23452429  0.01792695    -0.82300
O23         O  0.85416952  0.25684888  0.75930909    -0.81800
C24         C  0.90762981  0.11788743  0.75239923     0.97600
O25         O  0.91863909  0.14705233  0.75984544    -0.70900
O26         O  0.92122319  0.20361052  0.73342834    -0.74500
Al27       Al  0.90564520  0.19633380  0.76279132     1.49000
C28         C  0.91494352  0.23221769  0.72275428     0.92900
O29         O  0.85584168  0.19312435  0.70936774    -0.80700
O30         O  0.81793726  0.17483147  0.76818513    -0.74200
Al31       Al  0.85531595  0.22372182  0.73455963     1.90100
O32         O  0.83784102  0.14364300  0.72591519    -0.73300
O33         O  0.86251570  0.14576549  0.78985741    -0.73200
O34         O  0.88116431  0.11564306  0.74884926    -0.78800
O35         O  0.89467003  0.18956829  0.79271945    -0.77000
O36         O  0.87080375  0.18888295  0.75191722    -1.13200
O37         O  0.89951555  0.24824099  0.76850056    -0.72400
C38         C  0.87695359  0.26774915  0.76876289     0.98400
C39         C  0.84440272  0.16189872  0.70808594     0.94800
Al40       Al  0.85126161  0.14818405  0.75776146     1.55600
O41         O  0.89010116  0.24524063  0.72390419    -0.77000
C42         C  0.87921531  0.16562183  0.80175539     0.98900
C43         C  0.80441302  0.19803059  0.75654843     0.93800
O44         O  0.81616024  0.21270099  0.73976398    -0.82300
O45         O  0.67194908  0.35171587  0.00851621    -0.81800
C46         C  0.55197755  0.33928115  0.01438060     0.97600
O47         O  0.56985111  0.32498017  0.02775989    -0.70900
O48         O  0.60545112  0.28446413  0.00336762    -0.74500
Al49       Al  0.61078588  0.32129582  0.02604746     1.49000
C50         C  0.62509980  0.27609847  0.98958134     0.92900
O51         O  0.61778839  0.35269759  0.96045429    -0.80700
O52         O  0.62414371  0.42873377  0.00851476    -0.74200
Al53       Al  0.64369718  0.35232558  0.98528247     1.90100
O54         O  0.59253058  0.40017373  0.97230931    -0.73300
O55         O  0.58911150  0.39925899  0.03842893    -0.73200
O56         O  0.55913334  0.36586029  0.00190733    -0.78800
O57         O  0.61626177  0.35406998  0.05038142    -0.77000
O58         O  0.61564908  0.35639362  0.00552526    -1.13200
O59         O  0.65069127  0.30981212  0.02930475    -0.72400
C60         C  0.67275824  0.32785914  0.02401571     0.98400
C61         C  0.60079020  0.37883235  0.95644488     0.94800
Al62       Al  0.59285736  0.39539272  0.00531326     1.55600
O63         O  0.64332264  0.29964236  0.98351705    -0.77000
C64         C  0.60393932  0.38423827  0.05390610     0.98900
C65         C  0.64534143  0.43044873  0.99528025     0.93800
O66         O  0.65124088  0.40396669  0.98219362    -0.82300
O67         O  0.59506785  0.35193464  0.25617525    -0.81800
C68         C  0.71223106  0.33522552  0.23646360     0.97600
O69         O  0.69159295  0.32288258  0.22496338    -0.70900
O70         O  0.66138042  0.28292005  0.25311873    -0.74500
Al71       Al  0.65179316  0.31999719  0.23180628     1.49000
C72         C  0.64475415  0.27422778  0.26906955     0.92900
O73         O  0.65738483  0.35087674  0.29766744    -0.80700
O74         O  0.64378311  0.42766511  0.25162709    -0.74200
Al75       Al  0.62726757  0.35120438  0.27605548     1.90100
O76         O  0.68150914  0.39740484  0.28347988    -0.73300
O77         O  0.67196612  0.39729707  0.21733151    -0.73200
O78         O  0.70852081  0.36232700  0.24968614    -0.78800
O79         O  0.64175827  0.35312317  0.20903311    -0.77000
O80         O  0.65148870  0.35490575  0.25293288    -1.13200
O81         O  0.61179579  0.30928184  0.23329711    -0.72400
C82         C  0.59137716  0.32909762  0.24024424     0.98400
C83         C  0.67564877  0.37616077  0.29994842     0.94800
Al84       Al  0.67481289  0.39320907  0.25070482     1.55600
O85         O  0.62756257  0.29772322  0.27734707    -0.77000
C86         C  0.65361007  0.38289503  0.20402650     0.98900
C87         C  0.62450379  0.42949061  0.26665263     0.93800
O88         O  0.62082387  0.40314971  0.28021641    -0.82300
O89         O  0.35729665  0.26558418  0.26197264    -0.81800
C90         C  0.41061575  0.12749768  0.24578292     0.97600
O91         O  0.42167437  0.15614824  0.25381003    -0.70900
O92         O  0.42182652  0.21609137  0.23071330    -0.74500
Al93       Al  0.40843305  0.20437579  0.26005380     1.49000
C94         C  0.41469325  0.24523557  0.22098062     0.92900
O95         O  0.35308029  0.20828336  0.20885582    -0.80700
O96         O  0.32063872  0.17945123  0.26731423    -0.74200
Al97       Al  0.35586516  0.23551692  0.23570577     1.90100
O98         O  0.33872232  0.15548925  0.22354049    -0.73300
O99         O  0.36687204  0.14965650  0.28546912    -0.73200
O100        O  0.38399208  0.12534162  0.24286179    -0.78800
O101        O  0.39973985  0.19233962  0.29011611    -0.77000
O102        O  0.37275267  0.19818377  0.25025203    -1.13200
O103        O  0.40290158  0.25518603  0.26891932    -0.72400
C104        C  0.38064792  0.27488139  0.27111570     0.98400
C105        C  0.34276288  0.17647218  0.20655001     0.94800
Al106      Al  0.35402294  0.15607723  0.25443855     1.55600
O107        O  0.38997815  0.25819448  0.22379599    -0.77000
C108        C  0.38442839  0.16701731  0.29794558     0.98900
C109        C  0.30651185  0.20504867  0.25838441     0.93800
O110        O  0.31747094  0.22427579  0.24312145    -0.82300
O111        O  0.42015516  0.26357471  0.49175145    -0.81800
C112        C  0.37509929  0.12086621  0.50248135     0.97600
O113        O  0.36656827  0.14496159  0.48875825    -0.70900
O114        O  0.35400650  0.20405744  0.51218693    -0.74500
Al115      Al  0.37602510  0.19596053  0.48585427     1.49000
C116        C  0.35646403  0.23274979  0.52400583     0.92900
O117        O  0.41735901  0.20844573  0.54550169    -0.80700
O118        O  0.46351196  0.18102933  0.49195769    -0.74200
Al119      Al  0.41820946  0.23404631  0.51802899     1.90100
O120        O  0.44047436  0.15898441  0.53402232    -0.73300
O121        O  0.42285681  0.14248669  0.46995091    -0.73200
O122        O  0.39905694  0.12405648  0.51217882    -0.78800
O123        O  0.39481414  0.18736504  0.45835693    -0.77000
O124        O  0.40822573  0.19471699  0.50187242    -1.13200
O125        O  0.37783760  0.24790151  0.47883483    -0.72400
C126        C  0.39836658  0.27051013  0.47992543     0.98400
C127        C  0.43123750  0.17972244  0.54988952     0.94800
Al128      Al  0.42988495  0.15474408  0.50196401     1.55600
O129        O  0.37985111  0.25002173  0.52483938    -0.77000
C130        C  0.40989254  0.15953350  0.45417033     0.98900
C131        C  0.47376269  0.20883579  0.50203387     0.93800
O132        O  0.45852494  0.22752769  0.51542173    -0.82300
O133        O  0.09340692  0.34979888  0.75651146    -0.81800
C134        C  0.20957068  0.33618443  0.73548571     0.97600
O135        O  0.18909935  0.32575118  0.72311774    -0.70900
O136        O  0.16114907  0.28409968  0.75192232    -0.74500
Al137      Al  0.14980921  0.32081201  0.73097376     1.49000
C138        C  0.14551617  0.27506258  0.76846182     0.92900
O139        O  0.15633280  0.35171189  0.79676095    -0.80700
O140        O  0.14102521  0.42785711  0.75069457    -0.74200
Al141      Al  0.12597148  0.35081328  0.77565823     1.90100
O142        O  0.17916447  0.39907973  0.78248165    -0.73300
O143        O  0.16944527  0.39729537  0.71642676    -0.73200
O144        O  0.20615704  0.36295836  0.74903195    -0.78800
O145        O  0.13794941  0.35424579  0.70874771    -0.77000
O146        O  0.14945537  0.35533367  0.75225583    -1.13200
O147        O  0.11056633  0.30781557  0.73340909    -0.72400
C148        C  0.08989997  0.32657410  0.74082074     0.98400
C149        C  0.17391262  0.37767563  0.79895227     0.94800
Al150      Al  0.17240596  0.39393599  0.74982684     1.55600
O151        O  0.12797989  0.29772545  0.77709999    -0.77000
C152        C  0.15057993  0.38335641  0.70335292     0.98900
C153        C  0.12158341  0.42884180  0.76563748     0.93800
O154        O  0.11840834  0.40242549  0.77926838    -0.82300
O155        O  0.17555987  0.35195737  0.50438672    -0.81800
C156        C  0.05602134  0.33680966  0.51261338     0.97600
O157        O  0.07419449  0.32367323  0.52624719    -0.70900
O158        O  0.10973735  0.28318585  0.50148997    -0.74500
Al159      Al  0.11532967  0.32082108  0.52371703     1.49000
C160        C  0.12898805  0.27475578  0.48732975     0.92900
O161        O  0.11938713  0.35076037  0.45794972    -0.80700
O162        O  0.12667097  0.42827024  0.50541175    -0.74200
Al163      Al  0.14627248  0.35146585  0.48201664     1.90100
O164        O  0.09435384  0.39845154  0.46970227    -0.73300
O165        O  0.09247961  0.39799010  0.53593967    -0.73200
O166        O  0.06255561  0.36337490  0.49991793    -0.78800
O167        O  0.12134143  0.35443003  0.54765861    -0.77000
O168        O  0.11900330  0.35547576  0.50284374    -1.13200
O169        O  0.15540949  0.31024198  0.52598321    -0.72400
C170        C  0.17725581  0.32781969  0.51962705     0.98400
C171        C  0.10197207  0.37643511  0.45397631     0.94800
Al172      Al  0.09566954  0.39400239  0.50278967     1.55600
O173        O  0.14661860  0.29856982  0.48057274    -0.77000
C174        C  0.10799050  0.38383107  0.55131363     0.98900
C175        C  0.14760051  0.42954708  0.49185466     0.93800
O176        O  0.15283182  0.40295216  0.47866413    -0.82300
O177        O  0.59197874  0.85102466  0.75071104    -0.81800
C178        C  0.71098366  0.83554441  0.73827203     0.97600
O179        O  0.69152651  0.82365813  0.72543046    -0.70900
O180        O  0.65894964  0.78309207  0.75155164    -0.74500
Al181      Al  0.65130093  0.82042247  0.73000344     1.49000
C182        C  0.64119548  0.77425759  0.76670450     0.92900
O183        O  0.64970693  0.84968355  0.79631279    -0.80700
O184        O  0.64172684  0.92812232  0.75087763    -0.74200
Al185      Al  0.62212481  0.85036927  0.77272472     1.90100
O186        O  0.67605573  0.89575804  0.78429101    -0.73300
O187        O  0.67306209  0.89784122  0.71827888    -0.73200
O188        O  0.70593064  0.86172805  0.75190178    -0.78800
O189        O  0.64348795  0.85435133  0.70712435    -0.77000
O190        O  0.64875885  0.85473590  0.75143360    -1.13200
O191        O  0.61153952  0.80896897  0.72890596    -0.72400
C192        C  0.59012561  0.82786139  0.73472831     0.98400
C193        C  0.66833166  0.87407723  0.79997677     0.94800
Al194      Al  0.67247091  0.89288249  0.75133766     1.55600
O195        O  0.62273901  0.79713387  0.77375256    -0.77000
C196        C  0.65636085  0.88399935  0.70352062     0.98900
C197        C  0.62085622  0.92927954  0.76453400     0.93800
O198        O  0.61517948  0.90193591  0.77680786    -0.82300
O199        O  0.67626684  0.84531317  0.50914323    -0.81800
C200        C  0.55638294  0.83556855  0.51541613     0.97600
O201        O  0.57382545  0.82232897  0.52959774    -0.70900
O202        O  0.60851665  0.77976616  0.50555895    -0.74500
Al203      Al  0.61481596  0.81727493  0.52753303     1.49000
C204        C  0.62765151  0.77065157  0.49148248     0.92900
O205        O  0.62137264  0.84700060  0.46155813    -0.80700
O206        O  0.62925735  0.92327605  0.50954332    -0.74200
Al207      Al  0.64758097  0.84631393  0.48620427     1.90100
O208        O  0.59747026  0.89571977  0.47307824    -0.73300
O209        O  0.59331947  0.89502427  0.53912579    -0.73200
O210        O  0.56384511  0.86145267  0.50249516    -0.78800
O211        O  0.62160022  0.85099324  0.55096425    -0.77000
O212        O  0.61987110  0.85142501  0.50653299    -1.13200
O213        O  0.65443861  0.80463503  0.53044282    -0.72400
C214        C  0.67680816  0.82164348  0.52473002     0.98400
C215        C  0.60494665  0.87364802  0.45736502     0.94800
Al216      Al  0.59752451  0.89080682  0.50609531     1.55600
O217        O  0.64606846  0.79358568  0.48482977    -0.77000
C218        C  0.60931950  0.88120591  0.55426344     0.98900
C219        C  0.65057308  0.92421409  0.49639242     0.93800
O220        O  0.65581611  0.89774868  0.48307403    -0.82300
O221        O  0.41404283  0.76985114  0.99462162    -0.81800
C222        C  0.36857199  0.62640955  0.00442187     0.97600
O223        O  0.35878265  0.65301012  0.99339214    -0.70900
O224        O  0.34921025  0.71163850  0.01914220    -0.74500
Al225      Al  0.36876939  0.70348371  0.99131065     1.49000
C226        C  0.35360109  0.74012296  0.03092678     0.92900
O227        O  0.41604926  0.71464296  0.04855630    -0.80700
O228        O  0.45719396  0.68541490  0.99437948    -0.74200
Al229      Al  0.41432690  0.74023323  0.02108138     1.90100
O230        O  0.43452843  0.66237740  0.03637126    -0.73300
O231        O  0.41570074  0.65146067  0.97221905    -0.73200
O232        O  0.39278492  0.62856109  0.01376625    -0.78800
O233        O  0.38518691  0.69525531  0.96277920    -0.77000
O234        O  0.40235518  0.70096087  0.00556701    -1.13200
O235        O  0.37034712  0.75519613  0.98467148    -0.72400
C236        C  0.39134802  0.77692710  0.98393615     0.98400
C237        C  0.42798053  0.68429070  0.05249143     0.94800
Al238      Al  0.42341134  0.66028219  0.00432103     1.55600
O239        O  0.37723956  0.75667348  0.03018439    -0.77000
C240        C  0.40160406  0.66918466  0.95737972     0.98900
C241        C  0.46798238  0.71395477  0.00296096     0.93800
O242        O  0.45384593  0.73382446  0.01627547    -0.82300
O243        O  0.36110987  0.76014210  0.76000905    -0.81800
C244        C  0.40806214  0.61835639  0.74742342     0.97600
O245        O  0.42042756  0.64625391  0.75537561    -0.70900
O246        O  0.42369271  0.70391584  0.73033220    -0.74500
Al247      Al  0.40974517  0.69612145  0.76011072     1.49000
C248        C  0.41748092  0.73241336  0.71954653     0.92900
O249        O  0.35441577  0.69968787  0.70884984    -0.80700
O250        O  0.32165681  0.67992963  0.76925218    -0.74200
Al251      Al  0.35844021  0.72866421  0.73478783     1.90100
O252        O  0.33668533  0.65029791  0.72552588    -0.73300
O253        O  0.36639464  0.64671080  0.78732018    -0.73200
O254        O  0.38125895  0.61799509  0.74486751    -0.78800
O255        O  0.40064315  0.68781180  0.79059140    -0.77000
O256        O  0.37379205  0.69171076  0.75052401    -1.13200
O257        O  0.40645689  0.74839862  0.76719385    -0.72400
C258        C  0.38462481  0.76912194  0.76886031     0.98400
C259        C  0.34192544  0.66907837  0.70772228     0.94800
Al260      Al  0.35306618  0.65194111  0.75628683     1.55600
O261        O  0.39340544  0.74733619  0.72218091    -0.77000
C262        C  0.38438490  0.66430246  0.79927521     0.98900
C263        C  0.30855118  0.70574265  0.75954513     0.93800
O264        O  0.31952036  0.72113264  0.74267238    -0.82300
O265        O  0.17429559  0.84629557  0.01035345    -0.81800
C266        C  0.05517026  0.83515384  0.01836090     0.97600
O267        O  0.07306982  0.82262704  0.03238147    -0.70900
O268        O  0.10639671  0.78073701  0.00674305    -0.74500
Al269      Al  0.11382487  0.81739725  0.02911762     1.49000
C270        C  0.12507358  0.77172729  0.99225030     0.92900
O271        O  0.11950336  0.84840251  0.96311529    -0.80700
O272        O  0.12751209  0.92465457  0.01103194    -0.74200
Al273      Al  0.14567956  0.84724803  0.98763471     1.90100
O274        O  0.09513025  0.89645608  0.97512097    -0.73300
O275        O  0.09311018  0.89495723  0.04167566    -0.73200
O276        O  0.06211527  0.86115943  0.00528027    -0.78800
O277        O  0.12159559  0.85054391  0.05281707    -0.77000
O278        O  0.11836308  0.85206254  0.00826022    -1.13200
O279        O  0.15346574  0.80419801  0.03113116    -0.72400
C280        C  0.17533400  0.82257419  0.02582884     0.98400
C281        C  0.10337420  0.87538733  0.95908026     0.94800
Al282      Al  0.09591049  0.89122919  0.00831266     1.55600
O283        O  0.14388534  0.79442766  0.98589883    -0.77000
C284        C  0.10945856  0.88077947  0.05655628     0.98900
C285        C  0.14845310  0.92563780  0.99745638     0.93800
O286        O  0.15390572  0.89855680  0.98468779    -0.82300
O287        O  0.09312394  0.84784737  0.25422111    -0.81800
C288        C  0.21237485  0.83375190  0.24133165     0.97600
O289        O  0.19283099  0.82087286  0.22892581    -0.70900
O290        O  0.15988416  0.77991063  0.25507283    -0.74500
Al291      Al  0.15253551  0.81755236  0.23335043     1.49000
C292        C  0.14164272  0.77138489  0.26999611     0.92900
O293        O  0.15095996  0.84767974  0.29981584    -0.80700
O294        O  0.14245538  0.92507368  0.25367273    -0.74200
Al295      Al  0.12333881  0.84787877  0.27613091     1.90100
O296        O  0.17681375  0.89395213  0.28743696    -0.73300
O297        O  0.17371982  0.89552890  0.22102736    -0.73200
O298        O  0.20711184  0.85994568  0.25491073    -0.78800
O299        O  0.14462651  0.85148273  0.21016925    -0.77000
O300        O  0.14990762  0.85206502  0.25469502    -1.13200
O301        O  0.11285209  0.80603325  0.23227365    -0.72400
C302        C  0.09128662  0.82432369  0.23842579     0.98400
C303        C  0.16899517  0.87281319  0.30342408     0.94800
Al304      Al  0.17333940  0.89052260  0.25431899     1.55600
O305        O  0.12392272  0.79492094  0.27730439    -0.77000
C306        C  0.15677870  0.88163958  0.20641720     0.98900
C307        C  0.12168857  0.92646015  0.26736356     0.93800
O308        O  0.11619026  0.89950555  0.28000581    -0.82300
O309        O  0.86139470  0.76181035  0.25887196    -0.81800
C310        C  0.90963328  0.61907294  0.25090307     0.97600
O311        O  0.92206875  0.64816768  0.25674227    -0.70900
O312        O  0.92443360  0.70457711  0.23079863    -0.74500
Al313      Al  0.91065412  0.69777171  0.26074323     1.49000
C314        C  0.91805827  0.73230915  0.21936665     0.92900
O315        O  0.85562101  0.69658346  0.20941975    -0.80700
O316        O  0.82113708  0.68090713  0.26933560    -0.74200
Al317      Al  0.85910032  0.72794526  0.23447603     1.90100
O318        O  0.83868812  0.64779683  0.22737026    -0.73300
O319        O  0.86675903  0.65088500  0.28999479    -0.73200
O320        O  0.88275942  0.61797885  0.24923347    -0.78800
O321        O  0.90231124  0.69035045  0.29156073    -0.77000
O322        O  0.87457493  0.69233335  0.25146296    -1.13200
O323        O  0.90656441  0.74990608  0.26701751    -0.72400
C324        C  0.88476012  0.77070753  0.26819641     0.98400
C325        C  0.84335300  0.66569401  0.20909612     0.94800
Al326      Al  0.85398946  0.65276873  0.25844245     1.55600
O327        O  0.89380911  0.74679946  0.22155019    -0.77000
C328        C  0.88590708  0.66792883  0.30116548     0.98900
C329        C  0.80782009  0.70491280  0.25805672     0.93800
O330        O  0.82001813  0.72041427  0.24179500    -0.82300
O331        O  0.91577146  0.76458232  0.49525324    -0.81800
C332        C  0.87672008  0.61817029  0.50663133     0.97600
O333        O  0.86626165  0.64283503  0.49426197    -0.70900
O334        O  0.85259124  0.70147517  0.51804013    -0.74500
Al335      Al  0.87397286  0.69410111  0.49108008     1.49000
C336        C  0.85459613  0.73047659  0.52968417     0.92900
O337        O  0.91665882  0.71053189  0.54941440    -0.80700
O338        O  0.96267514  0.68418023  0.49672619    -0.74200
Al339      Al  0.91581258  0.73548282  0.52191046     1.90100
O340        O  0.93969785  0.66060183  0.53844001    -0.73300
O341        O  0.92417236  0.64521940  0.47406137    -0.73200
O342        O  0.90093386  0.62244340  0.51566800    -0.78800
O343        O  0.89215008  0.68611717  0.46311889    -0.77000
O344        O  0.90681849  0.69497800  0.50634006    -1.13200
O345        O  0.87356986  0.74595527  0.48369593    -0.72400
C346        C  0.89328886  0.76976018  0.48386440     0.98400
C347        C  0.93032264  0.68176108  0.55404608     0.94800
Al348      Al  0.93006099  0.65626252  0.50622066     1.55600
O349        O  0.87725802  0.74926230  0.52947707    -0.77000
C350        C  0.91009937  0.66135441  0.45852620     0.98900
C351        C  0.97199525  0.71299686  0.50604241     0.93800
O352        O  0.95622941  0.73183555  0.51886719    -0.82300
O353        O  0.85566843  0.02731669  0.49418552    -0.81800
C354        C  0.90430766  0.16970289  0.50121178     0.97600
O355        O  0.91214749  0.14409549  0.48799490    -0.70900
O356        O  0.92482846  0.08481679  0.51137022    -0.74500
Al357      Al  0.90138890  0.09296813  0.48568465     1.49000
C358        C  0.92207402  0.05731077  0.52403999     0.92900
O359        O  0.86402415  0.08576085  0.54636161    -0.80700
O360        O  0.81543356  0.11096236  0.49380789    -0.74200
Al361      Al  0.86027607  0.05840865  0.51975453     1.90100
O362        O  0.83999357  0.13462377  0.53551900    -0.73300
O363        O  0.85498293  0.14782527  0.47081688    -0.73200
O364        O  0.88089420  0.16756047  0.51181300    -0.78800
O365        O  0.88109234  0.10119597  0.45876422    -0.77000
O366        O  0.87028756  0.09638673  0.50271316    -1.13200
O367        O  0.89743795  0.04050509  0.47926125    -0.72400
C368        C  0.87644580  0.01870872  0.48160992     0.98400
C369        C  0.85064575  0.11473518  0.55114039     0.94800
Al370      Al  0.84935291  0.13709150  0.50296263     1.55600
O371        O  0.89845500  0.04070259  0.52542197    -0.77000
C372        C  0.86573142  0.12881353  0.45479950     0.98900
C373        C  0.80511012  0.08399048  0.50440207     0.93800
O374        O  0.82000019  0.06677120  0.51863763    -0.82300
O375        O  0.91644660  0.02652471  0.25727589    -0.81800
C376        C  0.86344003  0.16604128  0.24843634     0.97600
O377        O  0.85221692  0.13654466  0.25485899    -0.70900
O378        O  0.85093917  0.07891051  0.22927576    -0.74500
Al379      Al  0.86516191  0.08763843  0.25889707     1.49000
C380        C  0.85785717  0.05057257  0.21843004     0.92900
O381        O  0.91816825  0.08897536  0.20684645    -0.80700
O382        O  0.95289666  0.10877892  0.26652469    -0.74200
Al383      Al  0.91676855  0.05890296  0.23228559     1.90100
O384        O  0.93462878  0.13902099  0.22414519    -0.73300
O385        O  0.90765061  0.13895270  0.28669579    -0.73200
O386        O  0.89015588  0.16840317  0.24578159    -0.78800
O387        O  0.87458834  0.09628596  0.28912256    -0.77000
O388        O  0.90053342  0.09455699  0.24897556    -1.13200
O389        O  0.87100429  0.03616004  0.26566262    -0.72400
C390        C  0.89362703  0.01694893  0.26712615     0.98400
C391        C  0.92957508  0.12036666  0.20613563     0.94800
Al392      Al  0.91993072  0.13541668  0.25524505     1.55600
O393        O  0.88251494  0.03731727  0.22049166    -0.77000
C394        C  0.88998791  0.12040387  0.29824892     0.98900
C395        C  0.96669804  0.08471368  0.25559904     0.93800
O396        O  0.95559358  0.06937456  0.23870961    -0.82300
O397        O  0.18290398  0.94575341  0.75437243    -0.81800
C398        C  0.06393810  0.95945369  0.74142728     0.97600
O399        O  0.08333599  0.97277987  0.72915283    -0.70900
O400        O  0.11563206  0.01344166  0.75594565    -0.74500
Al401      Al  0.12357911  0.97646515  0.73380865     1.49000
C402        C  0.13383196  0.02219167  0.77085556     0.92900
O403        O  0.12518909  0.94704578  0.79957595    -0.80700
O404        O  0.13436053  0.86834878  0.75364814    -0.74200
Al405      Al  0.15286081  0.94627198  0.77621094     1.90100
O406        O  0.09942471  0.90038263  0.78723067    -0.73300
O407        O  0.10337164  0.89812168  0.72079603    -0.73200
O408        O  0.06943771  0.93323307  0.75469403    -0.78800
O409        O  0.13177306  0.94313721  0.71041230    -0.77000
O410        O  0.12641538  0.94175276  0.75475043    -1.13200
O411        O  0.16337797  0.98820351  0.73301267    -0.72400
C412        C  0.18479292  0.96925724  0.73876395     0.98400
C413        C  0.10697978  0.92221200  0.80311013     0.94800
Al414      Al  0.10328093  0.90308520  0.75412678     1.55600
O415        O  0.15228690  0.99923315  0.77752238    -0.77000
C416        C  0.12003550  0.91278394  0.70635171     0.98900
C417        C  0.15484122  0.86740787  0.76764694     0.93800
O418        O  0.15997318  0.89483649  0.78015788    -0.82300
O419        O  0.10431689  0.94987673  0.51143085    -0.81800
C420        C  0.22381757  0.95531087  0.51967482     0.97600
O421        O  0.20620034  0.96897167  0.53359581    -0.70900
O422        O  0.17343397  0.01337088  0.50899018    -0.74500
Al423      Al  0.16557917  0.97567746  0.53070993     1.49000
C424        C  0.15501848  0.02294519  0.49442603     0.92900
O425        O  0.15938890  0.94666146  0.46421876    -0.80700
O426        O  0.14951217  0.86936882  0.51041666    -0.74200
Al427      Al  0.13309956  0.94811071  0.48870683     1.90100
O428        O  0.18293518  0.89761749  0.47533449    -0.73300
O429        O  0.18433351  0.89626510  0.54155116    -0.73200
O430        O  0.21628839  0.92971175  0.50637570    -0.78800
O431        O  0.15752145  0.94184775  0.55385213    -0.77000
O432        O  0.16029805  0.94169037  0.50923411    -1.13200
O433        O  0.12611043  0.99025753  0.53315930    -0.72400
C434        C  0.10361731  0.97381305  0.52698844     0.98400
C435        C  0.17540125  0.91965693  0.45975253     0.94800
Al436      Al  0.18181010  0.90145843  0.50851449     1.55600
O437        O  0.13603362  0.00067492  0.48777347    -0.77000
C438        C  0.16879240  0.91087265  0.55683918     0.98900
C439        C  0.12842987  0.86962713  0.49701908     0.93800
O440        O  0.12353212  0.89724754  0.48475780    -0.82300
O441        O  0.60012694  0.95201047  0.00400659    -0.81800
C442        C  0.72001510  0.95633045  0.01472750     0.97600
O443        O  0.70195508  0.97202924  0.02747899    -0.70900
O444        O  0.66975071  0.01454039  0.00179178    -0.74500
Al445      Al  0.66124747  0.97864068  0.02414513     1.49000
C446        C  0.65148369  0.02408503  0.98720698     0.92900
O447        O  0.65751299  0.94660801  0.95856155    -0.80700
O448        O  0.64421993  0.87192531  0.00642405    -0.74200
Al449      Al  0.62994294  0.94920606  0.98213353     1.90100
O450        O  0.67927326  0.89707390  0.97117205    -0.73300
O451        O  0.67930271  0.89999008  0.03741159    -0.73200
O452        O  0.71250526  0.93002885  0.00193996    -0.78800
O453        O  0.65282378  0.94684355  0.04812969    -0.77000
O454        O  0.65631826  0.94353108  0.00349359    -1.13200
O455        O  0.62143283  0.99296534  0.02570437    -0.72400
C456        C  0.59903000  0.97631069  0.01933876     0.98400
C457        C  0.67327543  0.91897851  0.95509460     0.94800
Al458      Al  0.67734586  0.90291228  0.00420049     1.55600
O459        O  0.63267084  0.00176307  0.98037630    -0.77000
C460        C  0.66428321  0.91643276  0.05231102     0.98900
C461        C  0.62366239  0.87197037  0.99246906     0.93800
O462        O  0.62046277  0.89833613  0.97887917    -0.82300
O463        O  0.68032733  0.94223202  0.25551973    -0.81800
C464        C  0.56200537  0.95880897  0.24007212     0.97600
O465        O  0.58224103  0.97227698  0.22878029    -0.70900
O466        O  0.61381334  0.01065579  0.25721565    -0.74500
Al467      Al  0.62211726  0.97504638  0.23436115     1.49000
C468        C  0.63205787  0.01876494  0.27220790     0.92900
O469        O  0.62064858  0.94000064  0.29908340    -0.80700
O470        O  0.63135596  0.86514761  0.25055444    -0.74200
Al471      Al  0.64935678  0.94118334  0.27646872     1.90100
O472        O  0.59571028  0.89413185  0.28461928    -0.73300
O473        O  0.60095965  0.89884558  0.21832043    -0.73200
O474        O  0.56639442  0.93142272  0.25280231    -0.78800
O475        O  0.63078639  0.94350121  0.21015840    -0.77000
O476        O  0.62378357  0.93872563  0.25424842    -1.13200
O477        O  0.66181952  0.98618232  0.23477744    -0.72400
C478        C  0.68286549  0.96669388  0.24054929     0.98400
C479        C  0.60278449  0.91434448  0.30142153     0.94800
Al480      Al  0.60029001  0.90043785  0.25176675     1.55600
O481        O  0.64933179  0.99459607  0.27939860    -0.77000
C482        C  0.61807465  0.91446070  0.20461780     0.98900
C483        C  0.65111720  0.86262172  0.26517957     0.93800
O484        O  0.65589207  0.88908228  0.27865666    -0.82300
O485        O  0.35149847  0.03191396  0.99346816    -0.81800
C486        C  0.39985768  0.17370670  0.00115627     0.97600
O487        O  0.40726405  0.14855521  0.98752224    -0.70900
O488        O  0.41963590  0.09013565  0.01211188    -0.74500
Al489      Al  0.39677624  0.09726452  0.98604231     1.49000
C490        C  0.41690447  0.06220731  0.02448128     0.92900
O491        O  0.35695122  0.08874794  0.04662324    -0.80700
O492        O  0.31052565  0.11637227  0.99383488    -0.74200
Al493      Al  0.35491881  0.06230101  0.01942867     1.90100
O494        O  0.33554144  0.13933191  0.03519842    -0.73300
O495        O  0.35054904  0.15133847  0.97009789    -0.73200
O496        O  0.37653569  0.17145530  0.01178606    -0.78800
O497        O  0.37648465  0.10390339  0.95904959    -0.77000
O498        O  0.36535669  0.10060688  0.00279194    -1.13200
O499        O  0.39397251  0.04490712  0.98001636    -0.72400
C500        C  0.37273709  0.02348728  0.98138075     0.98400
C501        C  0.34455291  0.11859978  0.05103797     0.94800
Al502      Al  0.34480361  0.14151427  0.00275353     1.55600
O503        O  0.39324975  0.04551500  0.02581164    -0.77000
C504        C  0.36093163  0.13102172  0.95441067     0.98900
C505        C  0.30003328  0.08883267  0.00370633     0.93800
O506        O  0.31480283  0.07008849  0.01724371    -0.82300
O507        O  0.41594114  0.02873410  0.75515947    -0.81800
C508        C  0.36267411  0.16834878  0.74604546     0.97600
O509        O  0.35166082  0.13854730  0.75212675    -0.70900
O510        O  0.35174307  0.08159724  0.72605529    -0.74500
Al511      Al  0.36472916  0.08973502  0.75612587     1.49000
C512        C  0.35910323  0.05338941  0.71522723     0.92900
O513        O  0.42026976  0.09207754  0.70531690    -0.80700
O514        O  0.45226245  0.11238830  0.76554985    -0.74200
Al515      Al  0.41751602  0.06176428  0.73056274     1.90100
O516        O  0.43487526  0.14282414  0.72280793    -0.73300
O517        O  0.40624630  0.14044868  0.78547223    -0.73200
O518        O  0.38945081  0.17129174  0.74417930    -0.78800
O519        O  0.37319166  0.09761773  0.78691763    -0.77000
O520        O  0.40045960  0.09714713  0.74702341    -1.13200
O521        O  0.37018821  0.03800014  0.76235944    -0.72400
C522        C  0.39257337  0.01839283  0.76380337     0.98400
C523        C  0.43117454  0.12372645  0.70470483     0.94800
Al524      Al  0.41927407  0.13832978  0.75389546     1.55600
O525        O  0.38383162  0.04046400  0.71755018    -0.77000
C526        C  0.38884172  0.12086762  0.79673155     0.98900
C527        C  0.46645987  0.08806388  0.75523150     0.93800
O528        O  0.45593949  0.07197559  0.73837523    -0.82300
O529        O  0.10228188  0.44167329  0.00526870    -0.81800
C530        C  0.22142260  0.45436915  0.01344763     0.97600
O531        O  0.20329171  0.46839896  0.02676112    -0.70900
O532        O  0.16873170  0.50977462  0.00263049    -0.74500
Al533      Al  0.16269114  0.47226368  0.02446109     1.49000
C534        C  0.14926259  0.51906801  0.98900097     0.92900
O535        O  0.15796848  0.44449867  0.95859089    -0.80700
O536        O  0.14883803  0.36525885  0.00432454    -0.74200
Al537      Al  0.13105262  0.44298462  0.98258341     1.90100
O538        O  0.18236323  0.39573295  0.96936130    -0.73300
O539        O  0.18322918  0.39331555  0.03584665    -0.73200
O540        O  0.21476329  0.42776677  0.00066156    -0.78800
O541        O  0.15670553  0.43921872  0.04800775    -0.77000
O542        O  0.15835168  0.43782391  0.00326167    -1.13200
O543        O  0.12272352  0.48321558  0.02720259    -0.72400
C544        C  0.10098284  0.46491347  0.02124235     0.98400
C545        C  0.17510961  0.41863234  0.95410534     0.94800
Al546      Al  0.18075272  0.39852293  0.00263080     1.55600
O547        O  0.13093253  0.49596034  0.98234915    -0.77000
C548        C  0.16853518  0.40881428  0.05136081     0.98900
C549        C  0.12819357  0.36455689  0.99045200     0.93800
O550        O  0.12377705  0.39155276  0.97756949    -0.82300
O551        O  0.17837862  0.44417768  0.25528861    -0.81800
C552        C  0.06068187  0.45236658  0.23587273     0.97600
O553        O  0.08063021  0.46593924  0.22416305    -0.70900
O554        O  0.10947840  0.50834327  0.25240746    -0.74500
Al555      Al  0.12043775  0.47169459  0.23082189     1.49000
C556        C  0.12580620  0.51742203  0.26854139     0.92900
O557        O  0.11615316  0.43936759  0.29625236    -0.80700
O558        O  0.13276710  0.36439073  0.24913586    -0.74200
Al559      Al  0.14613803  0.44164307  0.27477233     1.90100
O560        O  0.09456193  0.39094415  0.28181284    -0.73300
O561        O  0.10232272  0.39395531  0.21580529    -0.73200
O562        O  0.06567028  0.42577204  0.24906062    -0.78800
O563        O  0.13164120  0.43915003  0.20779579    -0.77000
O564        O  0.12221844  0.43665664  0.25162823    -1.13200
O565        O  0.16011275  0.48532506  0.23235506    -0.72400
C566        C  0.18142866  0.46795607  0.23999475     0.98400
C567        C  0.09952838  0.41240906  0.29844790     0.94800
Al568      Al  0.10036518  0.39687066  0.24912865     1.55600
O569        O  0.14328338  0.49449676  0.27679375    -0.77000
C570        C  0.12000200  0.40928305  0.20246702     0.98900
C571        C  0.15217935  0.36366885  0.26410719     0.93800
O572        O  0.15500660  0.39018657  0.27788222    -0.82300
O573        O  0.85612108  0.52524829  0.99458328    -0.81800
C574        C  0.90325545  0.66755454  0.00547799     0.97600
O575        O  0.91087410  0.64314396  0.99140493    -0.70900
O576        O  0.92411564  0.58304968  0.01392364    -0.74500
Al577      Al  0.90079145  0.59205801  0.98833831     1.49000
C578        C  0.92165879  0.55435671  0.02564252     0.92900
O579        O  0.86221022  0.57953391  0.04899568    -0.80700
O580        O  0.81468482  0.60881340  0.99686371    -0.74200
Al581      Al  0.85967731  0.55435572  0.02122717     1.90100
O582        O  0.83920972  0.62966940  0.03892588    -0.73300
O583        O  0.85385826  0.64658702  0.97432300    -0.73200
O584        O  0.87998509  0.66442173  0.01616123    -0.78800
O585        O  0.88023772  0.60070776  0.96160756    -0.77000
O586        O  0.86957085  0.59377460  0.00538533    -1.13200
O587        O  0.89808855  0.54038080  0.98084471    -0.72400
C588        C  0.87721137  0.51836035  0.98191857     0.98400
C589        C  0.84896767  0.60847899  0.05424944     0.94800
Al590      Al  0.84850656  0.63424661  0.00650905     1.55600
O591        O  0.89812470  0.53743073  0.02675952    -0.77000
C592        C  0.86430512  0.62788060  0.95797062     0.98900
C593        C  0.80431836  0.58091236  0.00640151     0.93800
O594        O  0.81926307  0.56189000  0.01971113    -0.82300
O595        O  0.91549559  0.52781447  0.75765928    -0.81800
C596        C  0.86236035  0.66727800  0.75021557     0.97600
O597        O  0.85133041  0.63793327  0.75709448    -0.70900
O598        O  0.84992977  0.58115707  0.73059375    -0.74500
Al599      Al  0.86435379  0.58894281  0.76038779     1.49000
C600        C  0.85720351  0.55398610  0.71869004     0.92900
O601        O  0.91780020  0.59236147  0.70842527    -0.80700
O602        O  0.95174959  0.61099532  0.76842821    -0.74200
Al603      Al  0.91606981  0.56143291  0.73336066     1.90100
O604        O  0.93426563  0.64187826  0.72613223    -0.73300
O605        O  0.90608767  0.64028676  0.78882708    -0.73200
O606        O  0.88901365  0.66987173  0.74742269    -0.78800
O607        O  0.87398847  0.59642939  0.79099248    -0.77000
O608        O  0.89969566  0.59641303  0.75047587    -1.13200
O609        O  0.87008300  0.53732750  0.76603540    -0.72400
C610        C  0.89240262  0.51753474  0.76674833     0.98400
C611        C  0.92965447  0.62343013  0.70795681     0.94800
Al612      Al  0.91883124  0.63740972  0.75714875     1.55600
O613        O  0.88182583  0.54052572  0.72072022    -0.77000
C614        C  0.88903151  0.62072930  0.80041839     0.98900
C615        C  0.96566808  0.58702963  0.75750838     0.93800
O616        O  0.95479018  0.57167127  0.74050832    -0.82300
O617        O  0.68407412  0.44279523  0.75322807    -0.81800
C618        C  0.56509531  0.45975014  0.73793198     0.97600
O619        O  0.58551449  0.47318826  0.72680095    -0.70900
O620        O  0.61733057  0.51181737  0.75485485    -0.74500
Al621      Al  0.62559030  0.47568062  0.73239962     1.49000
C622        C  0.63536368  0.52028669  0.76991772     0.92900
O623        O  0.62503463  0.44365653  0.79779892    -0.80700
O624        O  0.63459799  0.36682056  0.75092428    -0.74200
Al625      Al  0.65336916  0.44346546  0.77481445     1.90100
O626        O  0.59883001  0.39826777  0.78407423    -0.73300
O627        O  0.60481818  0.39844750  0.71781133    -0.73200
O628        O  0.56959731  0.43298810  0.75113918    -0.78800
O629        O  0.63411936  0.44317880  0.70860687    -0.77000
O630        O  0.62730570  0.44023412  0.75287523    -1.13200
O631        O  0.66546213  0.48661007  0.73252079    -0.72400
C632        C  0.68633817  0.46629723  0.73762013     0.98400
C633        C  0.60642707  0.41894159  0.80051822     0.94800
Al634      Al  0.60368651  0.40213037  0.75115438     1.55600
O635        O  0.65342038  0.49684531  0.77679706    -0.77000
C636        C  0.62168289  0.41362897  0.70372653     0.98900
C637        C  0.65469309  0.36490503  0.76526497     0.93800
O638        O  0.65975959  0.39174451  0.77827841    -0.82300
O639        O  0.60221604  0.44378325  0.50182250    -0.81800
C640        C  0.72176967  0.45796327  0.51514307     0.97600
O641        O  0.70226640  0.47227054  0.52710541    -0.70900
O642        O  0.66957599  0.51064508  0.49967796    -0.74500
Al643      Al  0.66170487  0.47551835  0.52243186     1.49000
C644        C  0.65131893  0.51875783  0.48475456     0.92900
O645        O  0.66129477  0.44140075  0.45726183    -0.80700
O646        O  0.65101780  0.36721978  0.50549303    -0.74200
Al647      Al  0.63297221  0.44240175  0.48032205     1.90100
O648        O  0.68600711  0.39496553  0.47096859    -0.73300
O649        O  0.68277488  0.39910281  0.53717235    -0.73200
O650        O  0.71619539  0.43105397  0.50224593    -0.78800
O651        O  0.65354504  0.44394998  0.54664737    -0.77000
O652        O  0.65909917  0.43952888  0.50219071    -1.13200
O653        O  0.62175133  0.48716137  0.52275254    -0.72400
C654        C  0.60007554  0.46895821  0.51660771     0.98400
C655        C  0.67921518  0.41580117  0.45454437     0.94800
Al656      Al  0.68230747  0.40106162  0.50383587     1.55600
O657        O  0.63329904  0.49528524  0.47795666    -0.77000
C658        C  0.66621274  0.41456483  0.55145802     0.98900
C659        C  0.63091846  0.36472779  0.49121986     0.93800
O660        O  0.62622094  0.39045809  0.47742134    -0.82300
O661        O  0.35804529  0.52529640  0.49259429    -0.81800
C662        C  0.40506302  0.66782639  0.50451220     0.97600
O663        O  0.41226194  0.64308700  0.49063777    -0.70900
O664        O  0.42377647  0.58431716  0.51517345    -0.74500
Al665      Al  0.40220351  0.59222482  0.48852556     1.49000
C666        C  0.42031419  0.55619272  0.52731235     0.92900
O667        O  0.35772329  0.57901509  0.54751763    -0.83900
O668        O  0.31549033  0.61242156  0.49507847    -0.74200
Al669      Al  0.35868175  0.55471402  0.51942234     1.90100
O670        O  0.33932086  0.63198317  0.53724338    -0.73300
O671        O  0.35683196  0.64728286  0.47275490    -0.73200
O672        O  0.38191583  0.66505700  0.51539501    -0.78800
O673        O  0.38272080  0.59991338  0.46120967    -0.77000
O674        O  0.36998613  0.59445052  0.50445058    -1.13200
O675        O  0.40103423  0.54042788  0.48163451    -0.72400
C676        C  0.38039994  0.51814986  0.48151803     0.98400
C677        C  0.34628820  0.60922158  0.55261056     0.94800
Al678      Al  0.34989579  0.63591041  0.50512172     1.55600
O679        O  0.39671680  0.53914403  0.52757569    -0.77000
C680        C  0.36756234  0.62762237  0.45685945     0.98900
C681        C  0.30473277  0.58306385  0.50245156     0.93800
O682        O  0.31889990  0.56169306  0.51484191    -0.82300
O683        O  0.41776262  0.53091765  0.25942137    -0.81800
C684        C  0.36789287  0.67200557  0.24807957     0.97600
O685        O  0.35631536  0.64341362  0.25549602    -0.70900
O686        O  0.35438072  0.58588378  0.22994024    -0.74500
Al687      Al  0.36833096  0.59412823  0.25960156     1.49000
C688        C  0.36006317  0.55639849  0.21982577     0.92900
O689        O  0.42270857  0.59104912  0.20791282    -0.80700
O690        O  0.45663369  0.61410934  0.26715100    -0.74200
Al691      Al  0.41955859  0.56237494  0.23395051     1.90100
O692        O  0.43868892  0.64226639  0.22410061    -0.73300
O693        O  0.41165110  0.64450455  0.28746652    -0.73200
O694        O  0.39457510  0.67338146  0.24526139    -0.78800
O695        O  0.37823263  0.60222514  0.28967871    -0.77000
O696        O  0.40395275  0.59946567  0.24980606    -1.13200
O697        O  0.37234094  0.54238544  0.26648819    -0.72400
C698        C  0.39425453  0.52203512  0.26841239     0.98400
C699        C  0.43424230  0.62228973  0.20647071     0.94800
Al700      Al  0.42383567  0.64024804  0.25548640     1.55600
O701        O  0.38445467  0.54205144  0.22189421    -0.77000
C702        C  0.39455605  0.62500307  0.29913112     0.98900
C703        C  0.46996946  0.58860556  0.25721880     0.93800
O704        O  0.45844586  0.57141246  0.24117401    -0.82300
C705        C  0.36358329  0.62021002  0.39725722     0.20400
C706        C  0.36186646  0.59947280  0.37724193    -0.39500
C707        C  0.37565001  0.61420918  0.35829134     0.19400
C708        C  0.39031762  0.64714725  0.35888010     0.22000
C709        C  0.39230925  0.66793596  0.37918009    -0.40000
C710        C  0.37824368  0.65314828  0.39836807     0.20800
N711        N  0.35453253  0.60996868  0.41790305    -0.33300
C712        C  0.36347150  0.63615907  0.43266768    -0.10800
C713        C  0.37818040  0.66385963  0.42107291    -0.29600
N714        N  0.40072800  0.65526040  0.33797757    -0.46200
C715        C  0.39219532  0.62718396  0.32422520    -0.05500
C716        C  0.37687607  0.60111833  0.33649809    -0.22900
H717        H  0.35081775  0.57338825  0.37653272     0.18900
H718        H  0.40418244  0.69338397  0.38006359     0.17700
H719        H  0.39017358  0.68626895  0.42855035     0.14000
H720        H  0.36682644  0.57639644  0.33004606     0.13900
H721        H  0.34536927  0.58472347  0.42206267     0.32000
H722        H  0.41177095  0.67890012  0.33321796     0.34800
C723        C  0.49029168  0.53590241  0.54452682     0.20400
C724        C  0.51952149  0.54398562  0.54413241    -0.39500
C725        C  0.53764338  0.51449232  0.53908335     0.19400
C726        C  0.52751759  0.47952033  0.53446835     0.22000
C727        C  0.49830932  0.47108127  0.53574395    -0.40000
C728        C  0.48010747  0.50056581  0.54105301     0.20800
N729        N  0.46892939  0.56039002  0.54326172    -0.33300
C730        C  0.44511328  0.54059954  0.53876809    -0.10800
C731        C  0.45099259  0.50312917  0.53820996    -0.29600
N732        N  0.54860719  0.45799181  0.52628777    -0.46200
C733        C  0.57222712  0.47950543  0.52606089    -0.05500
C734        C  0.56630331  0.51462770  0.53422424    -0.22900
H735        H  0.52739388  0.57184115  0.54558567     0.18900
H736        H  0.49011854  0.44435193  0.53095711     0.17700
H737        H  0.43690373  0.48153799  0.53227496     0.14000
H738        H  0.58061439  0.53795868  0.53477644     0.13900
H739        H  0.47106120  0.58890795  0.54234693     0.32000
H740        H  0.54680614  0.43100840  0.52035426     0.34800
C741        C  0.65207204  0.39028420  0.65017947     0.20400
C742        C  0.67410873  0.39099820  0.63389446    -0.39500
C743        C  0.66542268  0.39027142  0.61103831     0.19400
C744        C  0.63683391  0.38951383  0.60496154     0.22000
C745        C  0.61479426  0.38828524  0.62125561    -0.40000
C746        C  0.62350518  0.38844327  0.64413004     0.20800
N747        N  0.65468072  0.39611291  0.67265350    -0.33300
C748        C  0.62772810  0.39768563  0.68116109    -0.10800
C749        C  0.60761544  0.39261959  0.66389132    -0.29600
N750        N  0.63396899  0.39498237  0.58249435    -0.46200
C751        C  0.66080962  0.39887089  0.57407304    -0.05500
C752        C  0.68109330  0.39573512  0.59135006    -0.22900
H753        H  0.69632388  0.39418941  0.63868245     0.18900
H754        H  0.59245526  0.38942199  0.61647712     0.17700
H755        H  0.58466122  0.39587937  0.66518971     0.14000
H756        H  0.70382739  0.40090359  0.59010128     0.13900
H757        H  0.67361742  0.40171466  0.68144871     0.32000
H758        H  0.61480679  0.39870065  0.57364547     0.34800
C759        C  0.80340516  0.49253177  0.70355535     0.20400
C760        C  0.78735958  0.46283655  0.71184855    -0.39500
C761        C  0.75774572  0.46844016  0.71335584     0.19400
C762        C  0.74497866  0.50048445  0.70584338     0.22000
C763        C  0.76077706  0.52967057  0.69703182    -0.40000
C764        C  0.79042507  0.52496330  0.69675895     0.20800
N765        N  0.83127936  0.49827171  0.70771942    -0.33300
C766        C  0.83554104  0.53480565  0.70519109    -0.10800
C767        C  0.81089407  0.55200624  0.69735744    -0.29600
N768        N  0.71772914  0.50220083  0.71264041    -0.46200
C769        C  0.71316385  0.47181051  0.72522429    -0.05500
C770        C  0.73743604  0.44952113  0.72575806    -0.22900
H771        H  0.79754962  0.43919709  0.71946789     0.18900
H772        H  0.75097907  0.55604771  0.69367873     0.17700
H773        H  0.80697265  0.58130089  0.69680216     0.14000
H774        H  0.74049217  0.42456883  0.73538049     0.13900
H775        H  0.84490255  0.48014972  0.71619962     0.32000
H776        H  0.70379435  0.52438183  0.71053726     0.34800
C777        C  0.87369242  0.65174058  0.90029444     0.20400
C778        C  0.89004972  0.66474422  0.88182861    -0.39500
C779        C  0.88535763  0.64716477  0.86072982     0.19400
C780        C  0.86592155  0.61879801  0.85847795     0.22000
C781        C  0.84976110  0.60575328  0.87683177    -0.40000
C782        C  0.85436288  0.62330746  0.89775817     0.20800
N783        N  0.87657208  0.66061610  0.92246222    -0.33300
C784        C  0.85917135  0.63752140  0.93409888    -0.10800
C785        C  0.84491686  0.61399125  0.91916373    -0.29600
N786        N  0.86563806  0.60592908  0.83708684    -0.46200
C787        C  0.88490661  0.62604825  0.82524421    -0.05500
C788        C  0.89779481  0.65221372  0.83946395    -0.22900
H789        H  0.90583905  0.68620148  0.88389417     0.18900
H790        H  0.83528487  0.58274280  0.87507566     0.17700
H791        H  0.83211503  0.59032760  0.92358448     0.14000
H792        H  0.91380926  0.67227333  0.83487573     0.13900
H793        H  0.89178534  0.67837711  0.92944419     0.32000
H794        H  0.85277763  0.58471530  0.83084744     0.34800
C795        C  0.24409819  0.50600275  0.21516020     0.20400
C796        C  0.26058268  0.53359708  0.20515270    -0.39500
C797        C  0.29018500  0.52783371  0.20532281     0.19400
C798        C  0.30248707  0.49666050  0.21455533     0.22000
C799        C  0.28592748  0.46912293  0.22473542    -0.40000
C800        C  0.25630466  0.47510352  0.22476477     0.20800
N801        N  0.21582474  0.50679183  0.21893432    -0.33300
C802        C  0.21000031  0.47642041  0.23125391    -0.10800
C803        C  0.23465748  0.45584441  0.23520946    -0.29600
N804        N  0.33086811  0.50100972  0.21664998    -0.46200
C805        C  0.33647713  0.53571984  0.20976925    -0.05500
C806        C  0.31174751  0.55278014  0.20185560    -0.22900
H807        H  0.25118048  0.55893514  0.19915088     0.18900
H808        H  0.29554222  0.44603728  0.23339876     0.17700
H809        H  0.23658706  0.43087950  0.24500051     0.14000
H810        H  0.30908814  0.58162833  0.19802156     0.13900
H811        H  0.20154852  0.52750105  0.21423367     0.32000
H812        H  0.34458641  0.48403476  0.22591109     0.34800
C813        C  0.03897264  0.50761655  0.04302844     0.20400
C814        C  0.02200496  0.53881133  0.04638984    -0.39500
C815        C  0.99253245  0.53335676  0.04454533     0.19400
C816        C  0.98069235  0.49911388  0.04034477     0.22000
C817        C  0.99771695  0.46787475  0.03682524    -0.40000
C818        C  0.02729536  0.47356631  0.03799181     0.20800
N819        N  0.06729850  0.50729036  0.03980739    -0.33300
C820        C  0.07355855  0.47336137  0.03181588    -0.10800
C821        C  0.04933024  0.45122319  0.03081268    -0.29600
N822        N  0.95269608  0.50222890  0.03575922    -0.46200
C823        C  0.94706840  0.53869361  0.03618760    -0.05500
C824        C  0.97121008  0.55894049  0.04195488    -0.22900
H825        H  0.03120074  0.56593531  0.04819353     0.18900
H826        H  0.98868479  0.44185918  0.03150449     0.17700
H827        H  0.04764850  0.42387493  0.02363754     0.14000
H828        H  0.97358871  0.58849704  0.04161769     0.13900
H829        H  0.08098827  0.52992781  0.04049430     0.32000
H830        H  0.93919340  0.48141973  0.02985316     0.34800
C831        C  0.16638659  0.38590468  0.10997768     0.20400
C832        C  0.17586010  0.38774229  0.13265841    -0.39500
C833        C  0.15438672  0.38659609  0.14942320     0.19400
C834        C  0.12559131  0.38429452  0.14410686     0.22000
C835        C  0.11613527  0.38299918  0.12146771    -0.40000
C836        C  0.13758754  0.38352699  0.10474096     0.20800
N837        N  0.18207060  0.39084063  0.09094309    -0.33300
C838        C  0.16304623  0.39155785  0.07350253    -0.10800
C839        C  0.13522338  0.38701658  0.08155795    -0.29600
N840        N  0.10933641  0.38809609  0.16292855    -0.46200
C841        C  0.12792150  0.39321401  0.18033711    -0.05500
C842        C  0.15613630  0.39224000  0.17255165    -0.22900
H843        H  0.19817979  0.39155900  0.13693907     0.18900
H844        H  0.09363469  0.38329947  0.11714184     0.17700
H845        H  0.11561571  0.39005436  0.07194751     0.14000
H846        H  0.17523527  0.39840787  0.18225116     0.13900
H847        H  0.20384842  0.39707844  0.09013331     0.32000
H848        H  0.08709558  0.39069192  0.16355921     0.34800
C849        C  0.36793378  0.11502421  0.85520129     0.20400
C850        C  0.35253248  0.10082687  0.87364861    -0.39500
C851        C  0.35485635  0.12036020  0.89416844     0.19400
C852        C  0.37155573  0.15147741  0.89632319     0.22000
C853        C  0.38731810  0.16548829  0.87782384    -0.40000
C854        C  0.38471476  0.14612873  0.85709104     0.20800
N855        N  0.36842521  0.10187466  0.83385130    -0.33300
C856        C  0.38543570  0.12470902  0.82170830    -0.10800
C857        C  0.39629456  0.15260663  0.83570400    -0.29600
N858        N  0.37239021  0.16264698  0.91823127    -0.46200
C859        C  0.35626580  0.13836370  0.93011729    -0.05500
C860        C  0.34493288  0.11175603  0.91554255    -0.22900
H861        H  0.33990319  0.07603770  0.87218952     0.18900
H862        H  0.40083266  0.18944293  0.87951452     0.17700
H863        H  0.40991839  0.17518793  0.83076040     0.14000
H864        H  0.33376983  0.08696002  0.92036230     0.13900
H865        H  0.35718225  0.07908416  0.82775605     0.32000
H866        H  0.38562016  0.18302122  0.92503423     0.34800
C867        C  0.52586178  0.98698222  0.03500096     0.20400
C868        C  0.49665523  0.97817254  0.03467534    -0.39500
C869        C  0.47780488  0.00759345  0.03836380     0.19400
C870        C  0.48740327  0.04317086  0.04185967     0.22000
C871        C  0.51656672  0.05177473  0.04272483    -0.40000
C872        C  0.53537755  0.02234971  0.03926804     0.20800
N873        N  0.54771556  0.96532436  0.02851539    -0.33300
C874        C  0.57121774  0.98707116  0.02881533    -0.10800
C875        C  0.56446558  0.02262119  0.03578773    -0.29600
N876        N  0.46577004  0.06717223  0.04001276    -0.46200
C877        C  0.44233385  0.04682937  0.03520154    -0.05500
C878        C  0.44876528  0.00948795  0.03468027    -0.22900
H879        H  0.48912340  0.95102611  0.03010486     0.18900
H880        H  0.52403273  0.07981004  0.04417218     0.17700
H881        H  0.57846487  0.04626711  0.03605560     0.14000
H882        H  0.43502710  0.98744833  0.02885726     0.13900
H883        H  0.54646622  0.93810392  0.02291068     0.32000
H884        H  0.46742910  0.09576511  0.03948229     0.34800
C885        C  0.63463528  0.89211440  0.10566123     0.20400
C886        C  0.61234340  0.89099650  0.12172923    -0.39500
C887        C  0.62068948  0.89137612  0.14467949     0.19400
C888        C  0.64915398  0.89336540  0.15099932     0.22000
C889        C  0.67144152  0.89450488  0.13494030    -0.40000
C890        C  0.66311414  0.89352004  0.11200217     0.20800
N891        N  0.63206145  0.89654481  0.08309703    -0.33300
C892        C  0.65895692  0.90059548  0.07485882    -0.10800
C893        C  0.67901814  0.89865916  0.09239062    -0.29600
N894        N  0.65141171  0.89843695  0.17355208    -0.46200
C895        C  0.62434228  0.89954078  0.18183534    -0.05500
C896        C  0.60447925  0.89491261  0.16432899    -0.22900
H897        H  0.59007771  0.89166802  0.11670933     0.18900
H898        H  0.69356651  0.89781734  0.13995799     0.17700
H899        H  0.70169905  0.90429908  0.09129647     0.14000
H900        H  0.58147968  0.89778692  0.16546024     0.13900
H901        H  0.61299920  0.89964070  0.07402367     0.32000
H902        H  0.67021010  0.90369968  0.18260898     0.34800
C903        C  0.25628186  0.97258626  0.71805236     0.20400
C904        C  0.28557158  0.96448447  0.71786918    -0.39500
C905        C  0.30316910  0.99078510  0.70760001     0.19400
C906        C  0.29230156  0.02282594  0.69828386     0.22000
C907        C  0.26297580  0.03031863  0.69791143    -0.40000
C908        C  0.24550782  0.00414034  0.70817296     0.20800
N909        N  0.23579799  0.95519642  0.72984988    -0.33300
C910        C  0.21201553  0.97603942  0.72736529    -0.10800
C911        C  0.21712781  0.00643248  0.71375153    -0.29600
N912        N  0.31308424  0.04772260  0.69561128    -0.46200
C913        C  0.33712863  0.03193090  0.70378616    -0.05500
C914        C  0.33207059  0.99581748  0.71035882    -0.22900
H915        H  0.29427906  0.94131132  0.72703208     0.18900
H916        H  0.25464216  0.05641626  0.69215903     0.17700
H917        H  0.20252554  0.02862303  0.70985859     0.14000
H918        H  0.34608833  0.97881279  0.72053563     0.13900
H919        H  0.23815656  0.93173981  0.73982579     0.32000
H920        H  0.31011066  0.07563350  0.69230682     0.34800
C921        C  0.16584614  0.88355234  0.61460457     0.20400
C922        C  0.17523718  0.88565742  0.63725007    -0.39500
C923        C  0.15378559  0.88510698  0.65397780     0.19400
C924        C  0.12498602  0.88258729  0.64872145     0.22000
C925        C  0.11556393  0.88056560  0.62603477    -0.40000
C926        C  0.13705445  0.88117746  0.60926744     0.20800
N927        N  0.18156663  0.88984473  0.59579647    -0.33300
C928        C  0.16265802  0.89207404  0.57839216    -0.10800
C929        C  0.13478790  0.88638896  0.58613923    -0.29600
N930        N  0.10879731  0.88815841  0.66746374    -0.46200
C931        C  0.12748558  0.89469474  0.68466047    -0.05500
C932        C  0.15563203  0.89275030  0.67685655    -0.22900
H933        H  0.19749356  0.89012597  0.64149778     0.18900
H934        H  0.09307201  0.88117953  0.62169089     0.17700
H935        H  0.11523063  0.89012920  0.57656199     0.14000
H936        H  0.17477983  0.89991145  0.68623415     0.13900
H937        H  0.20327131  0.89655654  0.59526177     0.32000
H938        H  0.08658814  0.89117878  0.66803380     0.34800
C939        C  0.75467643  0.97046116  0.22093494     0.20400
C940        C  0.78392312  0.96239341  0.22103581    -0.39500
C941        C  0.80159410  0.98848143  0.21071229     0.19400
C942        C  0.79086209  0.02044965  0.20119465     0.22000
C943        C  0.76151752  0.02776977  0.20035146    -0.40000
C944        C  0.74395427  0.00167563  0.21060727     0.20800
N945        N  0.73412826  0.95325077  0.23272362    -0.33300
C946        C  0.71031756  0.97377432  0.22971063    -0.10800
C947        C  0.71547525  0.00383322  0.21581236    -0.29600
N948        N  0.81168478  0.04538422  0.19879232    -0.46200
C949        C  0.83559701  0.02945443  0.20714029    -0.05500
C950        C  0.83042467  0.99341616  0.21368814    -0.22900
H951        H  0.79253372  0.93944012  0.23046200     0.18900
H952        H  0.75320380  0.05369988  0.19429956     0.17700
H953        H  0.70077381  0.02566149  0.21140487     0.14000
H954        H  0.84431074  0.97637715  0.22395326     0.13900
H955        H  0.73642372  0.93008042  0.24296063     0.32000
H956        H  0.80881336  0.07328669  0.19540712     0.34800
C957        C  0.99151165  0.04030973  0.54520176     0.20400
C958        C  0.02051252  0.04926918  0.54754760    -0.39500
C959        C  0.03969828  0.01981692  0.54583136     0.19400
C960        C  0.03060348  0.98412865  0.54195775     0.22000
C961        C  0.00158025  0.97503063  0.54030737    -0.40000
C962        C  0.98239244  0.00442814  0.54211181     0.20800
N963        N  0.97000743  0.06386673  0.54132536    -0.33300
C964        C  0.94720739  0.04286429  0.53568472    -0.10800
C965        C  0.95382212  0.00564614  0.53658135    -0.29600
N966        N  0.05278360  0.96244914  0.53645201    -0.46200
C967        C  0.07608094  0.98442709  0.53682696    -0.05500
C968        C  0.06894173  0.02021618  0.54310800    -0.22900
H969        H  0.02773328  0.07746107  0.54853677     0.18900
H970        H  0.99459152  0.94759509  0.53585697     0.17700
H971        H  0.94072494  0.98300102  0.53071565     0.14000
H972        H  0.08271446  0.04408575  0.54290515     0.13900
H973        H  0.97148284  0.09243263  0.54028549     0.32000
H974        H  0.05183070  0.93516965  0.53092408     0.34800
C975        C  0.87550623  0.15317560  0.39732084     0.20400
C976        C  0.89197367  0.16558546  0.37881863    -0.39500
C977        C  0.88622166  0.14869434  0.35774824     0.19400
C978        C  0.86559608  0.12170164  0.35552758     0.22000
C979        C  0.84921385  0.10941203  0.37385965    -0.40000
C980        C  0.85498551  0.12610450  0.39478570     0.20800
N981        N  0.87933775  0.16104074  0.41949562    -0.33300
C982        C  0.86127297  0.13866864  0.43100836    -0.10800
C983        C  0.84573991  0.11660765  0.41613700    -0.29600
N984        N  0.86500872  0.10849161  0.33430249    -0.46200
C985        C  0.88537867  0.12693540  0.32265565    -0.05500
C986        C  0.89911549  0.15253839  0.33664598    -0.22900
H987        H  0.90878406  0.18573056  0.38086561     0.18900
H988        H  0.83394756  0.08725164  0.37212665     0.17700
H989        H  0.83204802  0.09375121  0.42049264     0.14000
H990        H  0.91622666  0.17106849  0.33208313     0.13900
H991        H  0.89532466  0.17765771  0.42646852     0.32000
H992        H  0.85151094  0.08787065  0.32813057     0.34800
C993        C  0.94462738  0.64665749  0.60954840     0.20400
C994        C  0.95009150  0.62011471  0.62611857    -0.39500
C995        C  0.94715210  0.63190671  0.64874496     0.19400
C996        C  0.93951615  0.66747802  0.65464455     0.22000
C997        C  0.93402240  0.69406802  0.63802583    -0.40000
C998        C  0.93678141  0.68217502  0.61536409     0.20800
N999        N  0.94407939  0.64172552  0.58683377    -0.33300
C1000       C  0.93557924  0.67435510  0.57821934    -0.10800
C1001       C  0.93089268  0.70016103  0.59546413    -0.29600
N1002       N  0.93486699  0.67036634  0.67723108    -0.46200
C1003       C  0.93908019  0.63614340  0.68552729    -0.05500
C1004       C  0.94710116  0.61173827  0.66832466    -0.22900
H1005       H  0.95496346  0.59189177  0.62172977     0.18900
H1006       H  0.92686558  0.72149815  0.64236895     0.17700
H1007       H  0.92341661  0.72813944  0.59366315     0.14000
H1008       H  0.94991605  0.58232254  0.66969739     0.13900
H1009       H  0.94823337  0.61747267  0.57785457     0.32000
H1010       H  0.92673521  0.69310075  0.68600823     0.34800
C1011       C  0.03401855  0.76079791  0.48792539     0.20400
C1012       C  0.04850399  0.78701634  0.47482710    -0.39500
C1013       C  0.07273057  0.80292276  0.48496716     0.19400
C1014       C  0.08214167  0.79308671  0.50640563     0.22000
C1015       C  0.06737795  0.76734423  0.51968546    -0.40000
C1016       C  0.04289015  0.75180431  0.50967289     0.20800
N1017       N  0.00881228  0.74480291  0.48309924    -0.33300
C1018       C  0.00127905  0.72593860  0.50194733    -0.10800
C1019       C  0.02194899  0.72978016  0.51893800    -0.29600
N1020       N  0.10444737  0.81407379  0.51287145    -0.46200
C1021       C  0.10880935  0.83802335  0.49563383    -0.05500
C1022       C  0.08953289  0.83177793  0.47790200    -0.22900
H1023       H  0.04067998  0.79565584  0.45837120     0.18900
H1024       H  0.07371015  0.76116213  0.53695133     0.17700
H1025       H  0.02066552  0.72024254  0.53631512     0.14000
H1026       H  0.08714037  0.84754311  0.46246169     0.13900
H1027       H  0.99616196  0.74913053  0.46855564     0.32000
H1028       H  0.11470698  0.81378893  0.52849866     0.34800
C1029       C  0.89824268  0.86154961  0.46425646     0.20400
C1030       C  0.91233591  0.89537311  0.46231749    -0.39500
C1031       C  0.89497684  0.92671694  0.46375554     0.19400
C1032       C  0.86572578  0.92456430  0.46710902     0.22000
C1033       C  0.85148223  0.89068291  0.46849822    -0.40000
C1034       C  0.86884459  0.85927569  0.46683002     0.20800
N1035       N  0.91052318  0.82870805  0.46781590    -0.33300
C1036       C  0.88889893  0.80534282  0.47271938    -0.10800
C1037       C  0.86250217  0.82316899  0.47168232    -0.29600
N1038       N  0.85490987  0.95793096  0.47201312    -0.46200
C1039       C  0.87741208  0.98146288  0.47172668    -0.05500
C1040       C  0.90264825  0.96305268  0.46624036    -0.22900
H1041       H  0.93542123  0.89722125  0.46158358     0.18900
H1042       H  0.82889858  0.88891565  0.47239561     0.17700
H1043       H  0.84197480  0.81236944  0.47689939     0.14000
H1044       H  0.92414823  0.97400981  0.46671333     0.13900
H1045       H  0.93246314  0.82333257  0.46904322     0.32000
H1046       H  0.83402098  0.96377877  0.47711905     0.34800
C1047       C  0.82642486  0.55041003  0.52414113     0.20400
C1048       C  0.80362177  0.53734558  0.53738337    -0.39500
C1049       C  0.78607140  0.51073286  0.52708426     0.19400
C1050       C  0.79093101  0.49764288  0.50528356     0.22000
C1051       C  0.81356543  0.51109397  0.49188555    -0.40000
C1052       C  0.83098892  0.53806582  0.50212769     0.20800
N1053       N  0.84414531  0.57842769  0.52922982    -0.33300
C1054       C  0.85993050  0.58442592  0.51027574    -0.10800
C1055       C  0.85228524  0.55982338  0.49300010    -0.29600
N1056       N  0.76969440  0.47478182  0.49876010    -0.46200
C1057       C  0.75088626  0.47395712  0.51636600    -0.05500
C1058       C  0.76055056  0.49590039  0.53433325    -0.22900
H1059       H  0.79903272  0.54841407  0.55411231     0.18900
H1060       H  0.81656267  0.50249449  0.47439682     0.17700
H1061       H  0.85976681  0.55976725  0.47557786     0.14000
H1062       H  0.74941338  0.50208212  0.55003533     0.13900
H1063       H  0.84387765  0.59448857  0.54400574     0.32000
H1064       H  0.76706044  0.46274605  0.48273009     0.34800
C1065       C  0.83677291  0.62128773  0.15530532     0.20400
C1066       C  0.84516113  0.59589638  0.13850708    -0.39500
C1067       C  0.84271477  0.60781203  0.11588050     0.19400
C1068       C  0.83246929  0.64225567  0.11024588     0.22000
C1069       C  0.82403950  0.66762582  0.12700785    -0.40000
C1070       C  0.82669004  0.65582710  0.14964172     0.20800
N1071       N  0.84086999  0.61864467  0.17796620    -0.33300
C1072       C  0.83395436  0.65204397  0.18667313    -0.10800
C1073       C  0.82456618  0.67558070  0.16955075    -0.29600
N1074       N  0.83331487  0.64737332  0.08754387    -0.46200
C1075       C  0.84428990  0.61591671  0.07870122    -0.05500
C1076       C  0.85044087  0.59073467  0.09587736    -0.22900
H1077       H  0.85412485  0.56939136  0.14275514     0.18900
H1078       H  0.81715533  0.69514817  0.12279619     0.17700
H1079       H  0.81985242  0.70458443  0.17118844     0.14000
H1080       H  0.85950477  0.56352962  0.09395510     0.13900
H1081       H  0.85072204  0.59702016  0.18656103     0.32000
H1082       H  0.82716610  0.67086731  0.07867357     0.34800
C1083       C  0.74478025  0.75214739  0.27644505     0.20400
C1084       C  0.73034558  0.77979608  0.28868638    -0.39500
C1085       C  0.70552412  0.79417769  0.27851866     0.19400
C1086       C  0.69548093  0.78205165  0.25766952     0.22000
C1087       C  0.71004013  0.75440689  0.24529692    -0.40000
C1088       C  0.73508874  0.74010550  0.25546711     0.20800
N1089       N  0.77066206  0.73755604  0.28124677    -0.33300
C1090       C  0.77791732  0.71616233  0.26317089    -0.10800
C1091       C  0.75617186  0.71722301  0.24675630    -0.29600
N1092       N  0.67328359  0.80316274  0.25067220    -0.46200
C1093       C  0.66958446  0.82930775  0.26705608    -0.05500
C1094       C  0.68911597  0.82406492  0.28473333    -0.22900
H1095       H  0.73872307  0.79080433  0.30446489     0.18900
H1096       H  0.70327998  0.74607348  0.22843894     0.17700
H1097       H  0.75696873  0.70563344  0.22977679     0.14000
H1098       H  0.69229525  0.84157197  0.29944682     0.13900
H1099       H  0.78384313  0.74465638  0.29492149     0.32000
H1100       H  0.66273320  0.80152094  0.23504048     0.34800
C1101       C  0.87520485  0.86222660  0.28798252     0.20400
C1102       C  0.85987702  0.89528788  0.28920964    -0.39500
C1103       C  0.87630449  0.92738956  0.28846924     0.19400
C1104       C  0.90588476  0.92657551  0.28692129     0.22000
C1105       C  0.92125324  0.89351443  0.28648150    -0.40000
C1106       C  0.90480833  0.86142211  0.28692311     0.20800
N1107       N  0.86436366  0.82892248  0.28331097    -0.33300
C1108       C  0.88714892  0.80690918  0.27908057    -0.10800
C1109       C  0.91276196  0.82596143  0.28168717    -0.29600
N1110       N  0.91602146  0.95975823  0.28130774    -0.46200
C1111       C  0.89277893  0.98160450  0.27888159    -0.05500
C1112       C  0.86768349  0.96272825  0.28387460    -0.22900
H1113       H  0.83675368  0.89598582  0.28833892     0.18900
H1114       H  0.94410933  0.89282732  0.28355811     0.17700
H1115       H  0.93403132  0.81636429  0.27741847     0.14000
H1116       H  0.84595901  0.97217341  0.28131425     0.13900
H1117       H  0.84279237  0.82244151  0.28099802     0.32000
H1118       H  0.93710495  0.96605364  0.27693051     0.34800
C1119       C  0.89589269  0.63882435  0.40105447     0.20400
C1120       C  0.87725797  0.63132036  0.38283627    -0.39500
C1121       C  0.88629683  0.64331218  0.36135773     0.19400
C1122       C  0.91201613  0.66136530  0.35835494     0.22000
C1123       C  0.93079432  0.66860633  0.37653117    -0.40000
C1124       C  0.92170261  0.65671420  0.39802800     0.20800
N1125       N  0.89032916  0.63475800  0.42329989    -0.33300
C1126       C  0.91259076  0.65011979  0.43462029    -0.10800
C1127       C  0.93273039  0.66399978  0.41942925    -0.29600
N1128       N  0.91479783  0.67223003  0.33667826    -0.46200
C1129       C  0.89074759  0.66108589  0.32566520    -0.05500
C1130       C  0.87249611  0.64263213  0.34049841    -0.22900
H1131       H  0.85660899  0.61859691  0.38538568     0.18900
H1132       H  0.95039238  0.68394372  0.37426211     0.17700
H1133       H  0.95116829  0.68074971  0.42347358     0.14000
H1134       H  0.85168654  0.63118040  0.33669511     0.13900
H1135       H  0.87128720  0.62518299  0.43042263     0.32000
H1136       H  0.93198685  0.68674554  0.32981420     0.34800
C1137       C  0.96196331  0.55491026  0.23099777     0.20400
C1138       C  0.98574872  0.54375798  0.21814169    -0.39500
C1139       C  0.00010846  0.51232927  0.22582236     0.19400
C1140       C  0.99164851  0.49328866  0.24497318     0.22000
C1141       C  0.96762185  0.50438807  0.25782799    -0.40000
C1142       C  0.95303416  0.53585668  0.25002270     0.20800
N1143       N  0.94657834  0.58583097  0.22836260    -0.33300
C1144       C  0.92733574  0.58652170  0.24558814    -0.10800
C1145       C  0.93066043  0.55578441  0.25950715    -0.29600
N1146       N  0.01101523  0.46700501  0.25013557    -0.46200
C1147       C  0.03203586  0.46971850  0.23425466    -0.05500
C1148       C  0.02564201  0.49738674  0.21870624    -0.22900
H1149       H  0.99335261  0.55944674  0.20377894     0.18900
H1150       H  0.96148192  0.49052445  0.27330873     0.17700
H1151       H  0.91961235  0.55018295  0.27528292     0.14000
H1152       H  0.03916267  0.50740805  0.20514812     0.13900
H1153       H  0.94981128  0.60618332  0.21617423     0.32000
H1154       H  0.01106736  0.45033752  0.26453558     0.34800
C1155       C  0.18583996  0.90722415  0.35895784     0.20400
C1156       C  0.18618632  0.93414632  0.37618502    -0.39500
C1157       C  0.18690052  0.92115205  0.39864609     0.19400
C1158       C  0.18761357  0.88408898  0.40367017     0.22000
C1159       C  0.18675830  0.85709751  0.38643358    -0.40000
C1160       C  0.18564921  0.87012693  0.36392977     0.20800
N1161       N  0.18240758  0.91262669  0.33646246    -0.33300
C1162       C  0.17928472  0.87883415  0.32698147    -0.10800
C1163       C  0.18129965  0.85161763  0.34361066    -0.29600
N1164       N  0.18597786  0.87891715  0.42633920    -0.46200
C1165       C  0.18357705  0.91288609  0.43578533    -0.05500
C1166       C  0.18417060  0.93986850  0.41900874    -0.22900
H1167       H  0.18469097  0.96313221  0.37239882     0.18900
H1168       H  0.18571260  0.82810763  0.39029403     0.17700
H1169       H  0.17811581  0.82239919  0.34133540     0.14000
H1170       H  0.18111356  0.96911738  0.42130781     0.13900
H1171       H  0.17995091  0.93785360  0.32831920     0.32000
H1172       H  0.18430724  0.85379198  0.43472386     0.34800
C1173       C  0.03689277  0.04743175  0.25597655     0.20400
C1174       C  0.06162724  0.03342273  0.24539562    -0.39500
C1175       C  0.07653400  0.00622466  0.25742923     0.19400
C1176       C  0.06717288  0.99348537  0.27826515     0.22000
C1177       C  0.04250745  0.00763608  0.28891178    -0.40000
C1178       C  0.02786800  0.03534317  0.27705296     0.20800
N1179       N  0.01727599  0.06995246  0.24678877    -0.33300
C1180       C  0.99567820  0.07279552  0.26212587    -0.10800
C1181       C  0.00160735  0.05164154  0.28130826    -0.29600
N1182       N  0.08310966  0.96471390  0.28497131    -0.46200
C1183       C  0.10283639  0.95906699  0.26836063    -0.05500
C1184       C  0.09962273  0.98476140  0.25100808    -0.22900
H1185       H  0.06806286  0.04188894  0.22853822     0.18900
H1186       H  0.03456959  0.99669282  0.30478041     0.17700
H1187       H  0.98718046  0.04553829  0.29517646     0.14000
H1188       H  0.11115870  0.98576290  0.23506257     0.13900
H1189       H  0.01740458  0.08028995  0.23024669     0.32000
H1190       H  0.07984182  0.94869399  0.29942187     0.34800
C1191       C  0.03174067  0.78555679  0.20949230     0.20400
C1192       C  0.01606354  0.75607558  0.20057656    -0.39500
C1193       C  0.98633074  0.76066002  0.20024916     0.19400
C1194       C  0.97326739  0.79291846  0.20741532     0.22000
C1195       C  0.98907847  0.82245696  0.21624459    -0.40000
C1196       C  0.01870017  0.81728936  0.21739870     0.20800
N1197       N  0.05947780  0.78523171  0.21515540    -0.33300
C1198       C  0.06398746  0.81642688  0.22726127    -0.10800
C1199       C  0.03915869  0.83741630  0.22886851    -0.29600
N1200       N  0.94517975  0.78758152  0.21053983    -0.46200
C1201       C  0.94060527  0.75133878  0.20690067    -0.05500
C1202       C  0.96553315  0.73396709  0.19950566    -0.22900
H1203       H  0.02605688  0.73000124  0.19655985     0.18900
H1204       H  0.97877943  0.84608757  0.22393769     0.17700
H1205       H  0.03609459  0.86270507  0.23831416     0.14000
H1206       H  0.96912353  0.70465783  0.19814943     0.13900
H1207       H  0.07398497  0.76381897  0.21237788     0.32000
H1208       H  0.93132271  0.80564820  0.21894834     0.34800
C1209       C  0.32240411  0.75087174  0.24958400     0.20400
C1210       C  0.30806809  0.78044764  0.26016305    -0.39500
C1211       C  0.28293174  0.79267737  0.24938920     0.19400
C1212       C  0.27290480  0.77646117  0.22961608     0.22000
C1213       C  0.28702871  0.74673223  0.21916485    -0.40000
C1214       C  0.31210477  0.73456338  0.22991939     0.20800
N1215       N  0.34525324  0.73227362  0.25748859    -0.33300
C1216       C  0.34945220  0.70380008  0.24288303    -0.10800
C1217       C  0.32909387  0.70426195  0.22551187    -0.29600
N1218       N  0.24751177  0.79084477  0.22372825    -0.46200
C1219       C  0.24096427  0.81632369  0.23985351    -0.05500
C1220       C  0.26273035  0.81850507  0.25611267    -0.22900
H1221       H  0.31539061  0.79219120  0.27607050     0.18900
H1222       H  0.27848181  0.73314247  0.20422789     0.17700
H1223       H  0.32594024  0.68373763  0.21236707     0.14000
H1224       H  0.26282063  0.83481334  0.27155247     0.13900
H1225       H  0.35604481  0.73703734  0.27277130     0.32000
H1226       H  0.23464093  0.78239448  0.21015607     0.34800
C1227       C  0.14939480  0.67581734  0.28124107     0.20400
C1228       C  0.16359003  0.64191695  0.28106544    -0.39500
C1229       C  0.14603530  0.61076766  0.28105991     0.19400
C1230       C  0.11647230  0.61301109  0.28063417     0.22000
C1231       C  0.10219789  0.64701395  0.28154077    -0.40000
C1232       C  0.11984221  0.67828714  0.28208829     0.20800
N1233       N  0.16118185  0.70908057  0.27816130    -0.33300
C1234       C  0.13905016  0.73303425  0.27739305    -0.10800
C1235       C  0.11296105  0.71499130  0.28020683    -0.29600
N1236       N  0.10492244  0.57953852  0.27713666    -0.46200
C1237       C  0.12739243  0.55597759  0.27591379    -0.05500
C1238       C  0.15324501  0.57440139  0.27852694    -0.22900
H1239       H  0.18663224  0.63991494  0.27976795     0.18900
H1240       H  0.07912722  0.64905784  0.28063640     0.17700
H1241       H  0.09176111  0.72671914  0.27870793     0.14000
H1242       H  0.17454094  0.56306449  0.27668484     0.13900
H1243       H  0.18278032  0.71486580  0.27540266     0.32000
H1244       H  0.08332336  0.57334202  0.27470099     0.34800
C1245       C  0.09286389  0.91257453  0.90337186     0.20400
C1246       C  0.09430983  0.93952480  0.88632491    -0.39500
C1247       C  0.09279954  0.92660082  0.86373553     0.19400
C1248       C  0.08976590  0.88969868  0.85852605     0.22000
C1249       C  0.08896347  0.86278266  0.87553831    -0.40000
C1250       C  0.09076493  0.87561979  0.89806605     0.20800
N1251       N  0.09569806  0.91739124  0.92602712    -0.33300
C1252       C  0.09584031  0.88322091  0.93516364    -0.10800
C1253       C  0.09300153  0.85652313  0.91819655    -0.29600
N1254       N  0.09144397  0.88404678  0.83590683    -0.46200
C1255       C  0.09642821  0.91737557  0.82658489    -0.05500
C1256       C  0.09710472  0.94466388  0.84341860    -0.22900
H1257       H  0.09753377  0.96826732  0.89032231     0.18900
H1258       H  0.08815890  0.83378268  0.87148703     0.17700
H1259       H  0.09377054  0.82702395  0.92023844     0.14000
H1260       H  0.10245568  0.97334208  0.84125109     0.13900
H1261       H  0.09916888  0.94218844  0.93459731     0.32000
H1262       H  0.09195385  0.85867351  0.82754769     0.34800
C1263       C  0.95244811  0.74234552  0.00049475     0.20400
C1264       C  0.97122361  0.76593994  0.98893947    -0.39500
C1265       C  0.99034587  0.78606928  0.00257679     0.19400
C1266       C  0.99115992  0.78228824  0.02596461     0.22000
C1267       C  0.97201606  0.75908615  0.03759709    -0.40000
C1268       C  0.95241090  0.73952437  0.02395735     0.20800
N1269       N  0.93409057  0.71813767  0.99119415    -0.33300
C1270       C  0.92181390  0.70001545  0.00874659    -0.10800
C1271       C  0.93246463  0.71284726  0.02954216    -0.29600
N1272       N  0.01343749  0.80111428  0.03472366    -0.46200
C1273       C  0.02663922  0.81757075  0.01688041    -0.05500
C1274       C  0.01265660  0.80899779  0.99655370    -0.22900
H1275       H  0.97159325  0.76752993  0.97056609     0.18900
H1276       H  0.97298065  0.75555046  0.05584714     0.17700
H1277       H  0.92779585  0.70225752  0.04629943     0.14000
H1278       H  0.01937661  0.81600471  0.97950600     0.13900
H1279       H  0.93080935  0.71325375  0.97386475     0.32000
H1280       H  0.02008301  0.80138294  0.05168558     0.34800
C1281       C  0.14688827  0.68083443  0.97914635     0.20400
C1282       C  0.16671435  0.65193765  0.97889914    -0.39500
C1283       C  0.15509048  0.61654813  0.97891841     0.19400
C1284       C  0.12587165  0.61038648  0.97875026     0.22000
C1285       C  0.10598915  0.63933925  0.97941932    -0.40000
C1286       C  0.11765769  0.67481156  0.97983556     0.20800
N1287       N  0.15272213  0.71664882  0.98158755    -0.33300
C1288       C  0.12717880  0.73353967  0.98451996    -0.10800
C1289       C  0.10470027  0.70845050  0.98341169    -0.29600
N1290       N  0.12033459  0.57435848  0.98057099    -0.46200
C1291       C  0.14614627  0.55765418  0.98249334    -0.05500
C1292       C  0.16835617  0.58301754  0.98146530    -0.22900
H1293       H  0.18953477  0.65669416  0.97979848     0.18900
H1294       H  0.08320160  0.63455430  0.98068952     0.17700
H1295       H  0.08221035  0.71376894  0.98633182     0.14000
H1296       H  0.19098665  0.57785626  0.98368284     0.13900
H1297       H  0.17297399  0.72849827  0.98315888     0.32000
H1298       H  0.10023079  0.56216880  0.98225120     0.34800
C1299       C  0.15292320  0.91204718  0.14889059     0.20400
C1300       C  0.16261338  0.91216253  0.12624142    -0.39500
C1301       C  0.14133407  0.91115081  0.10930664     0.19400
C1302       C  0.11242439  0.91064002  0.11440138     0.22000
C1303       C  0.10272855  0.91068981  0.13704101    -0.40000
C1304       C  0.12401427  0.91113584  0.15397878     0.20800
N1305       N  0.16876623  0.90597074  0.16772995    -0.33300
C1306       C  0.14982208  0.90036715  0.18484033    -0.10800
C1307       C  0.12179503  0.90383972  0.17689129    -0.29600
N1308       N  0.09677347  0.90376385  0.09553697    -0.46200
C1309       C  0.11586477  0.89931290  0.07837104    -0.05500
C1310       C  0.14377701  0.90395072  0.08634750    -0.22900
H1311       H  0.18511457  0.91005889  0.12209711     0.18900
H1312       H  0.08031603  0.90747470  0.14117827     0.17700
H1313       H  0.10238857  0.89752592  0.18611739     0.14000
H1314       H  0.16335886  0.89870659  0.07704157     0.13900
H1315       H  0.19083754  0.90161580  0.16834941     0.32000
H1316       H  0.07484252  0.89842925  0.09486546     0.34800
C1317       C  0.23867937  0.03967069  0.98633193     0.20400
C1318       C  0.22476571  0.01213924  0.97372090    -0.39500
C1319       C  0.20164832  0.99495716  0.98456965     0.19400
C1320       C  0.19295886  0.00437792  0.00634412     0.22000
C1321       C  0.20720111  0.03146793  0.01910158    -0.40000
C1322       C  0.23030424  0.04870760  0.00824170     0.20800
N1323       N  0.26311520  0.05701286  0.98086641    -0.33300
C1324       C  0.27057599  0.07688998  0.99949535    -0.10800
C1325       C  0.25058446  0.07241076  0.01686348    -0.29600
N1326       N  0.17170966  0.98219674  0.01338899    -0.46200
C1327       C  0.16717104  0.95814043  0.99608226    -0.05500
C1328       C  0.18536334  0.96537590  0.97782002    -0.22900
H1329       H  0.23214350  0.00364691  0.95705017     0.18900
H1330       H  0.20148255  0.03760326  0.03655129     0.17700
H1331       H  0.25233174  0.08204534  0.03425556     0.14000
H1332       H  0.18731723  0.94990858  0.96212271     0.13900
H1333       H  0.27556052  0.05248822  0.96635273     0.32000
H1334       H  0.16209065  0.98204620  0.02942317     0.34800
C1335       C  0.33731251  0.62533616  0.65367647     0.20400
C1336       C  0.34506897  0.59935717  0.63706185    -0.39500
C1337       C  0.34130867  0.61023590  0.61436040     0.19400
C1338       C  0.33075926  0.64443746  0.60851183     0.22000
C1339       C  0.32321006  0.67055224  0.62513528    -0.40000
C1340       C  0.32691680  0.65964269  0.64785611     0.20800
N1341       N  0.34124775  0.62290503  0.67632751    -0.33300
C1342       C  0.33370938  0.65609750  0.68494258    -0.10800
C1343       C  0.32451772  0.67958444  0.66771517    -0.29600
N1344       N  0.33055637  0.64861932  0.58571829    -0.46200
C1345       C  0.34121280  0.61685584  0.57703006    -0.05500
C1346       C  0.34798494  0.59228271  0.59441048    -0.22900
H1347       H  0.35416804  0.57299552  0.64146864     0.18900
H1348       H  0.31586106  0.69778715  0.62071518     0.17700
H1349       H  0.31909630  0.70838799  0.66933532     0.14000
H1350       H  0.35726516  0.56516460  0.59267627     0.13900
H1351       H  0.35090870  0.60131640  0.68509306     0.32000
H1352       H  0.32422826  0.67187162  0.57668993     0.34800
C1353       C  0.46338292  0.55814277  0.72811890     0.20400
C1354       C  0.48952021  0.55004045  0.71738614    -0.39500
C1355       C  0.50416810  0.51891815  0.72535614     0.19400
C1356       C  0.49379660  0.49741488  0.74282863     0.22000
C1357       C  0.46740421  0.50538058  0.75344116    -0.40000
C1358       C  0.45254889  0.53645397  0.74533464     0.20800
N1359       N  0.44736528  0.58859077  0.72552261    -0.33300
C1360       C  0.42590684  0.58639700  0.74098223    -0.10800
C1361       C  0.42830807  0.55408513  0.75357856    -0.29600
N1362       N  0.51338068  0.47184237  0.74890237    -0.46200
C1363       C  0.53644765  0.47727596  0.73524620    -0.05500
C1364       C  0.53118727  0.50617426  0.72021536    -0.22900
H1365       H  0.49851675  0.56776218  0.70451792     0.18900
H1366       H  0.45964336  0.48958666  0.76769650     0.17700
H1367       H  0.41572141  0.54638057  0.76823781     0.14000
H1368       H  0.54600793  0.51799181  0.70815791     0.13900
H1369       H  0.45186412  0.61082698  0.71495498     0.32000
H1370       H  0.51182715  0.45338983  0.76237481     0.34800
C1371       C  0.23845977  0.74314463  0.76118220     0.20400
C1372       C  0.21306172  0.75520769  0.75069294    -0.39500
C1373       C  0.19925803  0.78532640  0.76099686     0.19400
C1374       C  0.21016752  0.80225483  0.78022935     0.22000
C1375       C  0.23562406  0.79030512  0.79068377    -0.40000
C1376       C  0.24930079  0.75996859  0.78047576     0.20800
N1377       N  0.25716040  0.71825213  0.75301235    -0.33300
C1378       C  0.28016184  0.71883819  0.76707306    -0.10800
C1379       C  0.27597064  0.74458572  0.78452147    -0.29600
N1380       N  0.19472291  0.83229370  0.78550304    -0.46200
C1381       C  0.17384407  0.83489917  0.76952658    -0.05500
C1382       C  0.17579802  0.80575496  0.75401694    -0.22900
H1383       H  0.20532500  0.74304165  0.73503121     0.18900
H1384       H  0.24478559  0.80465584  0.80510665     0.17700
H1385       H  0.29163959  0.75391391  0.79680990     0.14000
H1386       H  0.16303104  0.80146796  0.73888054     0.13900
H1387       H  0.25559321  0.70417514  0.73753684     0.32000
H1388       H  0.19901535  0.85100507  0.79858446     0.34800
C1389       C  0.37393707  0.86199790  0.78444812     0.20400
C1390       C  0.35818362  0.89480221  0.78376621    -0.39500
C1391       C  0.37433657  0.92707695  0.78229757     0.19400
C1392       C  0.40394715  0.92658192  0.78156582     0.22000
C1393       C  0.41966185  0.89383881  0.78246356    -0.40000
C1394       C  0.40355484  0.86158376  0.78392051     0.20800
N1395       N  0.36362273  0.82794907  0.78169558    -0.33300
C1396       C  0.38673833  0.80582553  0.77900719    -0.10800
C1397       C  0.41207224  0.82566566  0.78084478    -0.29600
N1398       N  0.41417141  0.95995758  0.77661068    -0.46200
C1399       C  0.39099077  0.98182257  0.77397533    -0.05500
C1400       C  0.36571409  0.96249183  0.77775050    -0.22900
H1401       H  0.33506629  0.89498766  0.78269142     0.18900
H1402       H  0.44266437  0.89335833  0.78039863     0.17700
H1403       H  0.43352222  0.81598186  0.77729380     0.14000
H1404       H  0.34403477  0.97208827  0.77515699     0.13900
H1405       H  0.34217890  0.82081413  0.77933830     0.32000
H1406       H  0.43549368  0.96672532  0.77339484     0.34800
C1407       C  0.44497348  0.64659507  0.10719434     0.20400
C1408       C  0.45053596  0.61924158  0.12336644    -0.39500
C1409       C  0.44884140  0.63037673  0.14628697     0.19400
C1410       C  0.44247270  0.66610936  0.15271517     0.22000
C1411       C  0.43691064  0.69338860  0.13654375    -0.40000
C1412       C  0.43827846  0.68217851  0.11367606     0.20800
N1413       N  0.44297356  0.64253270  0.08441271    -0.33300
C1414       C  0.43459994  0.67574803  0.07645842    -0.10800
C1415       C  0.43164293  0.70107920  0.09421485    -0.29600
N1416       N  0.43905435  0.66874863  0.17544665    -0.46200
C1417       C  0.44263546  0.63426799  0.18349362    -0.05500
C1418       C  0.44911429  0.60977961  0.16583387    -0.22900
H1419       H  0.45450169  0.59098245  0.11850861     0.18900
H1420       H  0.43062413  0.72093785  0.14141671     0.17700
H1421       H  0.42464822  0.72935497  0.09307874     0.14000
H1422       H  0.45131308  0.58025160  0.16696468     0.13900
H1423       H  0.44606614  0.61845502  0.07499561     0.32000
H1424       H  0.43212466  0.69174920  0.18460213     0.34800
C1425       C  0.28443496  0.50379595  0.99896964     0.20400
C1426       C  0.30181869  0.52495560  0.98458291    -0.39500
C1427       C  0.32096519  0.54905121  0.99550980     0.19400
C1428       C  0.32285971  0.55163289  0.01897074     0.22000
C1429       C  0.30499367  0.53117998  0.03329358    -0.40000
C1430       C  0.28573704  0.50734021  0.02239824     0.20800
N1431       N  0.26290009  0.48125247  0.99285959    -0.33300
C1432       C  0.25005238  0.47102984  0.01251778    -0.10800
C1433       C  0.26373675  0.48675827  0.03125939    -0.29600
N1434       N  0.34159996  0.57788942  0.02519240    -0.46200
C1435       C  0.35133487  0.59264954  0.00558293    -0.05500
C1436       C  0.33890776  0.57547256  0.98671186    -0.22900
H1437       H  0.29987354  0.52370077  0.96624911     0.18900
H1438       H  0.30535409  0.53454875  0.05159093     0.17700
H1439       H  0.25713420  0.48547345  0.04888284     0.14000
H1440       H  0.34166930  0.58256566  0.96898847     0.13900
H1441       H  0.25579633  0.47579529  0.97633917     0.32000
H1442       H  0.34607701  0.58686042  0.04171283     0.34800
C1443       C  0.28606382  0.76230050  0.05298499     0.20400
C1444       C  0.25703232  0.75406525  0.05531045    -0.39500
C1445       C  0.23813352  0.78271464  0.05052502     0.19400
C1446       C  0.24744001  0.81717973  0.04394435     0.22000
C1447       C  0.27652136  0.82587323  0.04241876    -0.40000
C1448       C  0.29547050  0.79714017  0.04718480     0.20800
N1449       N  0.30721397  0.73770175  0.05072072    -0.33300
C1450       C  0.33000273  0.75691897  0.04325464    -0.10800
C1451       C  0.32388736  0.79420821  0.04162149    -0.29600
N1452       N  0.22561749  0.83695377  0.03567676    -0.46200
C1453       C  0.20249540  0.81476092  0.03694665    -0.05500
C1454       C  0.20924791  0.78111847  0.04660876    -0.22900
H1455       H  0.24964113  0.72631800  0.05817544     0.18900
H1456       H  0.28379263  0.85182751  0.03564963     0.17700
H1457       H  0.33687974  0.81498547  0.03352458     0.14000
H1458       H  0.19559550  0.75724534  0.04796629     0.13900
H1459       H  0.30523651  0.70914878  0.05128100     0.32000
H1460       H  0.22681598  0.86264383  0.02791018     0.34800
C1461       C  0.38468300  0.64875929  0.90000073     0.20400
C1462       C  0.36601525  0.64387029  0.88153178    -0.39500
C1463       C  0.37816784  0.64819622  0.85993383     0.19400
C1464       C  0.40667337  0.65729809  0.85707836     0.22000
C1465       C  0.42544116  0.66178597  0.87554942    -0.40000
C1466       C  0.41337158  0.65694698  0.89715694     0.20800
N1467       N  0.37766960  0.64971021  0.92208924    -0.33300
C1468       C  0.40199982  0.65815946  0.93344840    -0.10800
C1469       C  0.42487334  0.66270688  0.91854990    -0.29600
N1470       N  0.41239053  0.66315442  0.83504798    -0.46200
C1471       C  0.38749469  0.65739501  0.82374246    -0.05500
C1472       C  0.36564306  0.64766388  0.83864058    -0.22900
H1473       H  0.34345459  0.63841918  0.88385101     0.18900
H1474       H  0.44753935  0.66979548  0.87328305     0.17700
H1475       H  0.44623197  0.67207319  0.92263805     0.14000
H1476       H  0.34336283  0.64294796  0.83459883     0.13900
H1477       H  0.35719794  0.64689591  0.92899714     0.32000
H1478       H  0.43190520  0.67150310  0.82814468     0.34800
C1479       C  0.52718498  0.76550021  0.98428779     0.20400
C1480       C  0.53982135  0.79451826  0.97233856    -0.39500
C1481       C  0.56480843  0.80918666  0.98196352     0.19400
C1482       C  0.57630125  0.79624807  0.00208481     0.22000
C1483       C  0.56331182  0.76767207  0.01428961    -0.40000
C1484       C  0.53840657  0.75274481  0.00454711     0.20800
N1485       N  0.50199204  0.74928765  0.97975573    -0.33300
C1486       C  0.49692622  0.72613278  0.99725366    -0.10800
C1487       C  0.51915250  0.72765403  0.01308667    -0.29600
N1488       N  0.59948935  0.81598985  0.00811679    -0.46200
C1489       C  0.60262499  0.84179029  0.99175117    -0.05500
C1490       C  0.58136465  0.83836475  0.97519984    -0.22900
H1491       H  0.53044845  0.80553561  0.95698122     0.18900
H1492       H  0.57153130  0.75842730  0.03048873     0.17700
H1493       H  0.51968243  0.71501844  0.02970351     0.14000
H1494       H  0.57794347  0.85571292  0.96055395     0.13900
H1495       H  0.48773617  0.75627440  0.96678780     0.32000
H1496       H  0.61174072  0.81300213  0.02284542     0.34800
C1497       C  0.36880546  0.86440127  0.96509387     0.20400
C1498       C  0.34981186  0.89419612  0.96601512    -0.39500
C1499       C  0.36233741  0.92907718  0.96499258     0.19400
C1500       C  0.39158562  0.93396835  0.96278837     0.22000
C1501       C  0.41056557  0.90416973  0.96183784    -0.40000
C1502       C  0.39810401  0.86930571  0.96330330     0.20800
N1503       N  0.36270765  0.82938822  0.97015544    -0.33300
C1504       C  0.38827040  0.81224819  0.97239395    -0.10800
C1505       C  0.41082065  0.83600036  0.96774846    -0.29600
N1506       N  0.39857738  0.96938449  0.96593905    -0.46200
C1507       C  0.37376269  0.98696195  0.97079237    -0.05500
C1508       C  0.35063186  0.96286061  0.96996053    -0.22900
H1509       H  0.32722178  0.89054509  0.96934244     0.18900
H1510       H  0.43352403  0.90795462  0.96202664     0.17700
H1511       H  0.43343341  0.83072543  0.97000136     0.14000
H1512       H  0.32874488  0.96849898  0.97489728     0.13900
H1513       H  0.34265590  0.81896149  0.97455679     0.32000
H1514       H  0.41923083  0.98009568  0.96729280     0.34800
C1515       C  0.58683960  0.91601792  0.36067585     0.20400
C1516       C  0.58672342  0.93206323  0.38249254    -0.39500
C1517       C  0.58827227  0.90760982  0.40085120     0.19400
C1518       C  0.59030379  0.87002742  0.39764858     0.22000
C1519       C  0.58997700  0.85394526  0.37583832    -0.40000
C1520       C  0.58794291  0.87836983  0.35747274     0.20800
N1521       N  0.58942146  0.93345045  0.34068238    -0.33300
C1522       C  0.59201627  0.90690514  0.32453650    -0.10800
C1523       C  0.59072069  0.87209094  0.33433296    -0.29600
N1524       N  0.59511875  0.85308929  0.41756663    -0.46200
C1525       C  0.59586855  0.87992744  0.43364329    -0.05500
C1526       C  0.59135476  0.91433403  0.42389840    -0.22900
H1527       H  0.58687599  0.96153419  0.38495543     0.18900
H1528       H  0.59257924  0.82467275  0.37332001     0.17700
H1529       H  0.59463172  0.84598336  0.32600890     0.14000
H1530       H  0.59249017  0.94083321  0.43227057     0.13900
H1531       H  0.59151323  0.96173131  0.33833006     0.32000
H1532       H  0.59897586  0.82511854  0.41996165     0.34800
C1533       C  0.70337941  0.99284342  0.48598903     0.20400
C1534       C  0.72516824  0.01070312  0.47383419    -0.39500
C1535       C  0.74162236  0.03602239  0.48631922     0.19400
C1536       C  0.73701444  0.04227962  0.50927208     0.22000
C1537       C  0.71508374  0.02469990  0.52134033    -0.40000
C1538       C  0.69825369  0.00008896  0.50876162     0.20800
N1539       N  0.68633295  0.96564611  0.47852089    -0.33300
C1540       C  0.66996114  0.95594516  0.49655223    -0.10800
C1541       C  0.67661303  0.97697918  0.51570002    -0.29600
N1542       N  0.75781647  0.06344105  0.51800440    -0.46200
C1543       C  0.77570717  0.07124788  0.50056583    -0.05500
C1544       C  0.76619399  0.05485633  0.48041672    -0.22900
H1545       H  0.72968831  0.00428562  0.45619951     0.18900
H1546       H  0.71205991  0.02883218  0.53942574     0.17700
H1547       H  0.66807730  0.97408734  0.53271147     0.14000
H1548       H  0.77745479  0.05339373  0.46434914     0.13900
H1549       H  0.68640778  0.95361919  0.46235191     0.32000
H1550       H  0.76095822  0.06977721  0.53517373     0.34800
C1551       C  0.73743932  0.77555610  0.54654392     0.20400
C1552       C  0.75407999  0.74393678  0.54924348    -0.39500
C1553       C  0.78366181  0.74933104  0.54919212     0.19400
C1554       C  0.79583055  0.78388355  0.54734544     0.22000
C1555       C  0.77912363  0.81559603  0.54475541    -0.40000
C1556       C  0.74951351  0.81002259  0.54400432     0.20800
N1557       N  0.70946848  0.77648306  0.54173622    -0.33300
C1558       C  0.70385789  0.81135808  0.53534457    -0.10800
C1559       C  0.72814016  0.83334211  0.53681702    -0.29600
N1560       N  0.82395351  0.78106097  0.54321401    -0.46200
C1561       C  0.82938381  0.74463982  0.54144721    -0.05500
C1562       C  0.80498753  0.72395645  0.54566169    -0.22900
H1563       H  0.74474340  0.71675134  0.54900624     0.18900
H1564       H  0.78858558  0.84206581  0.54121086     0.17700
H1565       H  0.73037197  0.86157947  0.53145658     0.14000
H1566       H  0.80237960  0.69466166  0.54323379     0.13900
H1567       H  0.69569294  0.75397606  0.54057102     0.32000
H1568       H  0.83763080  0.80243869  0.53860968     0.34800
C1569       C  0.49084028  0.78637893  0.52251837     0.20400
C1570       C  0.47042209  0.76550629  0.53444429    -0.39500
C1571       C  0.45266706  0.74280294  0.52109085     0.19400
C1572       C  0.45557479  0.74067815  0.49769974     0.22000
C1573       C  0.47553863  0.76202657  0.48576934    -0.40000
C1574       C  0.49283894  0.78520371  0.49904240     0.20800
N1575       N  0.51225334  0.80667318  0.53134883    -0.33300
C1576       C  0.52769847  0.81897819  0.51338466    -0.10800
C1577       C  0.51601869  0.80648939  0.49293140    -0.29600
N1578       N  0.43838699  0.71455601  0.48907665    -0.46200
C1579       C  0.42389954  0.70019533  0.50691280    -0.05500
C1580       C  0.43206467  0.71728615  0.52724873    -0.22900
H1581       H  0.46920869  0.76584180  0.55282580     0.18900
H1582       H  0.47817673  0.75966963  0.46752965     0.17700
H1583       H  0.52495640  0.80954905  0.47606308     0.14000
H1584       H  0.42521372  0.71041298  0.54428253     0.13900
H1585       H  0.51705226  0.81024034  0.54856740     0.32000
H1586       H  0.43709699  0.70623978  0.47207290     0.34800
C1587       C  0.65052737  0.67995709  0.47871179     0.20400
C1588       C  0.67026593  0.65099418  0.47812427    -0.39500
C1589       C  0.65852718  0.61582309  0.47595227     0.19400
C1590       C  0.62935128  0.60995750  0.47409344     0.22000
C1591       C  0.60955934  0.63891471  0.47527524    -0.40000
C1592       C  0.62128515  0.67408422  0.47786209     0.20800
N1593       N  0.65623647  0.71555732  0.48232704    -0.33300
C1594       C  0.63049439  0.73232699  0.48434254    -0.10800
C1595       C  0.60812809  0.70743733  0.48176431    -0.29600
N1596       N  0.62351646  0.57389141  0.47439756    -0.46200
C1597       C  0.64903214  0.55684676  0.47725353    -0.05500
C1598       C  0.67138284  0.58203182  0.47807692    -0.22900
H1599       H  0.69299897  0.65540196  0.48028706     0.18900
H1600       H  0.58670278  0.63423497  0.47526460     0.17700
H1601       H  0.58544556  0.71279594  0.48341079     0.14000
H1602       H  0.69363754  0.57654977  0.48185733     0.13900
H1603       H  0.67637371  0.72737307  0.48475069     0.32000
H1604       H  0.60325226  0.56187506  0.47510013     0.34800
C1605       C  0.68968611  0.90501560  0.85515778     0.20400
C1606       C  0.69242541  0.93160860  0.87244951    -0.39500
C1607       C  0.69031092  0.91867121  0.89487644     0.19400
C1608       C  0.68635202  0.88188643  0.89976200     0.22000
C1609       C  0.68332081  0.85537159  0.88248784    -0.40000
C1610       C  0.68492559  0.86839785  0.86007663     0.20800
N1611       N  0.68703447  0.91103654  0.83266030    -0.33300
C1612       C  0.67972537  0.87826402  0.82327115    -0.10800
C1613       C  0.67858425  0.85096166  0.83982341    -0.29600
N1614       N  0.68225005  0.87709962  0.92221925    -0.46200
C1615       C  0.68290136  0.91111687  0.93167872    -0.05500
C1616       C  0.68800171  0.93773177  0.91516180    -0.22900
H1617       H  0.69430968  0.96056478  0.86869749     0.18900
H1618       H  0.67833560  0.82702306  0.88621733     0.17700
H1619       H  0.67162052  0.82283862  0.83760153     0.14000
H1620       H  0.68795040  0.96723533  0.91746825     0.13900
H1621       H  0.68746780  0.93646146  0.82452786     0.32000
H1622       H  0.67681976  0.85262141  0.93032326     0.34800
C1623       C  0.76899123  0.77321435  0.72936199     0.20400
C1624       C  0.78168064  0.74129538  0.72041222    -0.39500
C1625       C  0.80620677  0.72879188  0.73171866     0.19400
C1626       C  0.81729865  0.74666037  0.75058059     0.22000
C1627       C  0.80429304  0.77838062  0.75975921    -0.40000
C1628       C  0.77973686  0.79106544  0.74834691     0.20800
N1629       N  0.74440238  0.78877584  0.72261749    -0.33300
C1630       C  0.73898657  0.81658887  0.73746833    -0.10800
C1631       C  0.76078672  0.81917922  0.75367777    -0.29600
N1632       N  0.83999374  0.72813911  0.75883439    -0.46200
C1633       C  0.84323998  0.69830439  0.74514789    -0.05500
C1634       C  0.82242830  0.69762565  0.72818177    -0.22900
H1635       H  0.77264360  0.72668558  0.70603676     0.18900
H1636       H  0.81228449  0.79165799  0.77498826     0.17700
H1637       H  0.76157318  0.83730351  0.76830730     0.14000
H1638       H  0.81891933  0.67632809  0.71557759     0.13900
H1639       H  0.73115832  0.77952035  0.70947881     0.32000
H1640       H  0.85161666  0.73430871  0.77353186     0.34800
C1641       C  0.65423725  0.68014695  0.77922231     0.20400
C1642       C  0.67000100  0.64732340  0.77882766    -0.39500
C1643       C  0.65400318  0.61489946  0.78060533     0.19400
C1644       C  0.62444765  0.61516078  0.78211432     0.22000
C1645       C  0.60871962  0.64803595  0.78299683    -0.40000
C1646       C  0.62478303  0.68050282  0.78170737     0.20800
N1647       N  0.66404809  0.71406960  0.77492754    -0.33300
C1648       C  0.64076643  0.73624830  0.77491731    -0.10800
C1649       C  0.61591224  0.71645261  0.77945559    -0.29600
N1650       N  0.61402737  0.58090033  0.78007761    -0.46200
C1651       C  0.63709881  0.55864961  0.77764005    -0.05500
C1652       C  0.66243080  0.57879179  0.77816757    -0.22900
H1653       H  0.69289794  0.64698692  0.77611195     0.18900
H1654       H  0.58557564  0.64828400  0.78342453     0.17700
H1655       H  0.59410159  0.72642415  0.77892004     0.14000
H1656       H  0.68383556  0.56877745  0.77480022     0.13900
H1657       H  0.68504663  0.72136566  0.77091452     0.32000
H1658       H  0.59252458  0.57333166  0.77898374     0.34800
C1659       C  0.47179622  0.79439620  0.70662228     0.20400
C1660       C  0.48745031  0.82472130  0.71454217    -0.39500
C1661       C  0.51723551  0.82080916  0.71431663     0.19400
C1662       C  0.53045547  0.78955164  0.70584829     0.22000
C1663       C  0.51488281  0.75926451  0.69790075    -0.40000
C1664       C  0.48509730  0.76252499  0.69909683     0.20800
N1665       N  0.44405739  0.78815051  0.71078400    -0.33300
C1666       C  0.43999520  0.75178468  0.70731008    -0.10800
C1667       C  0.46489084  0.73503825  0.69931836    -0.29600
N1668       N  0.55841858  0.78994197  0.71071845    -0.46200
C1669       C  0.56292368  0.82081237  0.72312222    -0.05500
C1670       C  0.53787133  0.84126816  0.72539515    -0.22900
H1671       H  0.47711285  0.84793363  0.72268381     0.18900
H1672       H  0.52522164  0.73352924  0.69360531     0.17700
H1673       H  0.46891948  0.70584718  0.69773992     0.14000
H1674       H  0.53468513  0.86591535  0.73545303     0.13900
H1675       H  0.43018068  0.80594036  0.71939292     0.32000
H1676       H  0.57301084  0.76872018  0.70768546     0.34800
C1677       C  0.62661596  0.91277130  0.65132361     0.20400
C1678       C  0.60418312  0.91430186  0.63540851    -0.39500
C1679       C  0.61229398  0.91287026  0.61242670     0.19400
C1680       C  0.64069065  0.90989461  0.60598818     0.22000
C1681       C  0.66307670  0.90862581  0.62187374    -0.40000
C1682       C  0.65499945  0.91034703  0.64478461     0.20800
N1683       N  0.62418812  0.90751674  0.67380903    -0.33300
C1684       C  0.65108363  0.90185248  0.68168036    -0.10800
C1685       C  0.67098169  0.90376149  0.66411068    -0.29600
N1686       N  0.64267436  0.90235061  0.58372851    -0.46200
C1687       C  0.61553691  0.90019600  0.57577066    -0.05500
C1688       C  0.59585186  0.90726063  0.59309560    -0.22900
H1689       H  0.58196609  0.91386779  0.64057706     0.18900
H1690       H  0.68502485  0.90387089  0.61677556     0.17700
H1691       H  0.69343286  0.89657533  0.66488126     0.14000
H1692       H  0.57287877  0.90386352  0.59232960     0.13900
H1693       H  0.60517273  0.90441284  0.68293573     0.32000
H1694       H  0.66130874  0.89529324  0.57490225     0.34800
C1695       C  0.56622718  0.99576390  0.77684600     0.20400
C1696       C  0.54112912  0.00866541  0.78745871    -0.39500
C1697       C  0.52710130  0.03797372  0.77666906     0.19400
C1698       C  0.53720114  0.05293200  0.75664499     0.22000
C1699       C  0.56240389  0.04015500  0.74610685    -0.40000
C1700       C  0.57660154  0.01109654  0.75702394     0.20800
N1701       N  0.58164060  0.96595437  0.78247959    -0.33300
C1702       C  0.60206163  0.96204101  0.76620995    -0.10800
C1703       C  0.59978146  0.99001504  0.75011754    -0.29600
N1704       N  0.51787312  0.07637588  0.74793085    -0.46200
C1705       C  0.49532391  0.07676715  0.76247113    -0.05500
C1706       C  0.50041557  0.05322474  0.78071543    -0.22900
H1707       H  0.53234821  0.99554866  0.80238117     0.18900
H1708       H  0.56959977  0.05078704  0.72993668     0.17700
H1709       H  0.61205217  0.99296252  0.73462735     0.14000
H1710       H  0.48519024  0.04480963  0.79353635     0.13900
H1711       H  0.57759206  0.94820349  0.79599743     0.32000
H1712       H  0.51872830  0.08864034  0.73192189     0.34800
C1713       C  0.08600873  0.37016066  0.39462556     0.20400
C1714       C  0.08627519  0.35343212  0.37300975    -0.39500
C1715       C  0.08360387  0.37718610  0.35437528     0.19400
C1716       C  0.08123406  0.41483104  0.35715775     0.22000
C1717       C  0.08050039  0.43148689  0.37878263    -0.40000
C1718       C  0.08281502  0.40769682  0.39740925     0.20800
N1719       N  0.09167132  0.35414767  0.41468183    -0.33300
C1720       C  0.09187183  0.38151472  0.43042181    -0.10800
C1721       C  0.08608484  0.41533102  0.42033331    -0.29600
N1722       N  0.08383749  0.43183885  0.33703834    -0.46200
C1723       C  0.08785887  0.40502715  0.32125903    -0.05500
C1724       C  0.08728875  0.37043877  0.33137682    -0.22900
H1725       H  0.09000063  0.32428922  0.37082661     0.18900
H1726       H  0.07988256  0.46101482  0.38090617     0.17700
H1727       H  0.08670524  0.44214505  0.42834444     0.14000
H1728       H  0.09246645  0.34437957  0.32344071     0.13900
H1729       H  0.09661869  0.32652315  0.41734111     0.32000
H1730       H  0.08527779  0.46012995  0.33444555     0.34800
C1731       C  0.95341205  0.24431758  0.49475371     0.20400
C1732       C  0.97306779  0.26637978  0.48298284    -0.39500
C1733       C  0.99146676  0.28777621  0.49649997     0.19400
C1734       C  0.99066380  0.28681087  0.52001792     0.22000
C1735       C  0.97047261  0.26541315  0.53181341    -0.40000
C1736       C  0.95175810  0.24435274  0.51825981     0.20800
N1737       N  0.93593553  0.21870035  0.48583194    -0.33300
C1738       C  0.92270193  0.20248117  0.50366329    -0.10800
C1739       C  0.93169476  0.21809468  0.52421598    -0.29600
N1740       N  0.01278978  0.30581987  0.52887120    -0.46200
C1741       C  0.02748467  0.31952599  0.51089782    -0.05500
C1742       C  0.01464597  0.30911378  0.49043193    -0.22900
H1743       H  0.97481608  0.26561766  0.46462996     0.18900
H1744       H  0.97023749  0.26393683  0.55019256     0.17700
H1745       H  0.92597177  0.20948417  0.54120558     0.14000
H1746       H  0.02265145  0.31383557  0.47342298     0.13900
H1747       H  0.93389236  0.21166069  0.46866071     0.32000
H1748       H  0.01833572  0.30795778  0.54603465     0.34800
C1749       C  0.13374806  0.11295308  0.47835244     0.20400
C1750       C  0.11370249  0.14146024  0.47648186    -0.39500
C1751       C  0.12491130  0.17708603  0.47642766     0.19400
C1752       C  0.15402760  0.18380542  0.47740989     0.22000
C1753       C  0.17412355  0.15522712  0.47954697    -0.40000
C1754       C  0.16280488  0.11953914  0.48033401     0.20800
N1755       N  0.12803043  0.07731909  0.48160703    -0.33300
C1756       C  0.15337025  0.06107260  0.48643190    -0.10800
C1757       C  0.17571242  0.08643049  0.48565168    -0.29600
N1758       N  0.15898778  0.22002243  0.47936542    -0.46200
C1759       C  0.13289229  0.23628939  0.48037237    -0.05500
C1760       C  0.11110321  0.21043627  0.47846231    -0.22900
H1761       H  0.09090334  0.13633868  0.47656781     0.18900
H1762       H  0.19670328  0.16055691  0.48189906     0.17700
H1763       H  0.19798936  0.08172995  0.48972254     0.14000
H1764       H  0.08832697  0.21513586  0.48006696     0.13900
H1765       H  0.10777835  0.06527871  0.48232330     0.32000
H1766       H  0.17879243  0.23260266  0.48202113     0.34800
C1767       C  0.23387590  0.54900311  0.50213609     0.20400
C1768       C  0.20840318  0.53718805  0.51256820    -0.39500
C1769       C  0.19372912  0.50864328  0.50138055     0.19400
C1770       C  0.20394119  0.49305227  0.48145225     0.22000
C1771       C  0.22941265  0.50458634  0.47116852    -0.40000
C1772       C  0.24385387  0.53324587  0.48218252     0.20800
N1773       N  0.25337345  0.57248596  0.51066729    -0.33300
C1774       C  0.27578783  0.57172904  0.49601966    -0.10800
C1775       C  0.27058938  0.54755791  0.47806054    -0.29600
N1776       N  0.18773097  0.46445674  0.47514791    -0.46200
C1777       C  0.16701748  0.46135784  0.49113714    -0.05500
C1778       C  0.16984320  0.48868655  0.50776806    -0.22900
H1779       H  0.20119102  0.54834947  0.52867552     0.18900
H1780       H  0.23798388  0.49113983  0.45617975     0.17700
H1781       H  0.28564635  0.53857451  0.46518384     0.14000
H1782       H  0.15736702  0.49195087  0.52315437     0.13900
H1783       H  0.25263212  0.58562718  0.52649321     0.32000
H1784       H  0.19143031  0.44688938  0.46134975     0.34800
C1785       C  0.19191743  0.41215097  0.85378466     0.20400
C1786       C  0.18997723  0.43836963  0.87136130    -0.39500
C1787       C  0.19026020  0.42451554  0.89363790     0.19400
C1788       C  0.19274583  0.38737654  0.89812093     0.22000
C1789       C  0.19418975  0.36113576  0.88056246    -0.40000
C1790       C  0.19349688  0.37493633  0.85830328     0.20800
N1791       N  0.18813386  0.41791309  0.83136807    -0.33300
C1792       C  0.18638803  0.38415548  0.82163323    -0.10800
C1793       C  0.18998105  0.35672165  0.83788700    -0.29600
N1794       N  0.18997055  0.38093029  0.92054521    -0.46200
C1795       C  0.18499225  0.41405508  0.93040552    -0.05500
C1796       C  0.18515079  0.44192007  0.91415615    -0.22900
H1797       H  0.18681620  0.46725628  0.86792144     0.18900
H1798       H  0.19417122  0.33196383  0.88397809     0.17700
H1799       H  0.18740546  0.32743253  0.83543450     0.14000
H1800       H  0.18025357  0.47068222  0.91680948     0.13900
H1801       H  0.18379095  0.44302682  0.82358131     0.32000
H1802       H  0.18917754  0.35530069  0.92840861     0.34800
C1803       C  0.03598588  0.55058529  0.75830993     0.20400
C1804       C  0.06170010  0.53896953  0.74801890    -0.39500
C1805       C  0.07546317  0.50887870  0.75823095     0.19400
C1806       C  0.06415231  0.49146242  0.77704358     0.22000
C1807       C  0.03844050  0.50293545  0.78723072    -0.40000
C1808       C  0.02498417  0.53337339  0.77730225     0.20800
N1809       N  0.01725453  0.57555636  0.75038893    -0.33300
C1810       C  0.99428537  0.57462620  0.76452452    -0.10800
C1811       C  0.99844196  0.54864535  0.78155795    -0.29600
N1812       N  0.07991082  0.46191464  0.78250876    -0.46200
C1813       C  0.10151054  0.46022563  0.76712391    -0.05500
C1814       C  0.09955963  0.48925988  0.75173085    -0.22900
H1815       H  0.06983929  0.55158321  0.73270504     0.18900
H1816       H  0.02906144  0.48838223  0.80138808     0.17700
H1817       H  0.98272805  0.53903034  0.79365795     0.14000
H1818       H  0.11302031  0.49418953  0.73708898     0.13900
H1819       H  0.01882958  0.58993899  0.73511327     0.32000
H1820       H  0.07551060  0.44308650  0.79538062     0.34800
C1821       C  0.27803419  0.29180327  0.74206933     0.20400
C1822       C  0.30545144  0.28450914  0.75110093    -0.39500
C1823       C  0.31804479  0.25073554  0.74457960     0.19400
C1824       C  0.30396617  0.22597394  0.73060301     0.22000
C1825       C  0.27681457  0.23326641  0.72157479    -0.40000
C1826       C  0.26465270  0.26710271  0.72764664     0.20800
N1827       N  0.26075847  0.32091986  0.74631748    -0.33300
C1828       C  0.23643725  0.31459638  0.73423538    -0.10800
C1829       C  0.23829767  0.28136514  0.72240116    -0.29600
N1830       N  0.31899257  0.19467625  0.72846399    -0.46200
C1831       C  0.34317435  0.19924623  0.74085403    -0.05500
C1832       C  0.34350641  0.23405997  0.75109340    -0.22900
H1833       H  0.31594951  0.30334706  0.76267765     0.18900
H1834       H  0.26565796  0.21361694  0.71093385     0.17700
H1835       H  0.22185332  0.26839508  0.71219398     0.14000
H1836       H  0.35915100  0.24461483  0.76299935     0.13900
H1837       H  0.26484849  0.34297720  0.75725929     0.32000
H1838       H  0.31262394  0.17090157  0.71983275     0.34800
C1839       C  0.15381900  0.11438098  0.78190439     0.20400
C1840       C  0.17191626  0.14472309  0.77922442    -0.39500
C1841       C  0.15863816  0.17918776  0.78017767     0.19400
C1842       C  0.12960428  0.18320244  0.78415359     0.22000
C1843       C  0.11139617  0.15280437  0.78649483    -0.40000
C1844       C  0.12457692  0.11824968  0.78489494     0.20800
N1845       N  0.16075634  0.07900555  0.77863024    -0.33300
C1846       C  0.13575775  0.06031884  0.77872193    -0.10800
C1847       C  0.11266906  0.08372704  0.78274885    -0.29600
N1848       N  0.12183442  0.21857396  0.78225948    -0.46200
C1849       C  0.14589034  0.23697666  0.77641834    -0.05500
C1850       C  0.16931605  0.21339358  0.77501350    -0.22900
H1851       H  0.19439821  0.14162108  0.77524777     0.18900
H1852       H  0.08843808  0.15582885  0.78799518     0.17700
H1853       H  0.09016335  0.07682119  0.78242593     0.14000
H1854       H  0.19077652  0.21999125  0.76947674     0.13900
H1855       H  0.18091789  0.06863941  0.77436627     0.32000
H1856       H  0.10104339  0.22907759  0.78295723     0.34800
C1857       C  0.11801959  0.40555428  0.65041445     0.20400
C1858       C  0.09645743  0.40183462  0.63387070    -0.39500
C1859       C  0.10509223  0.40619249  0.61116564     0.19400
C1860       C  0.13323605  0.41329734  0.60542111     0.22000
C1861       C  0.15474749  0.41748810  0.62201072    -0.40000
C1862       C  0.14604878  0.41354036  0.64475954     0.20800
N1863       N  0.11604836  0.39708036  0.67256364    -0.33300
C1864       C  0.14288424  0.39966380  0.68124269    -0.10800
C1865       C  0.16218217  0.41052195  0.66447097    -0.29600
N1866       N  0.13691960  0.40994681  0.58281105    -0.46200
C1867       C  0.11102504  0.40090331  0.57397753    -0.05500
C1868       C  0.09054052  0.39864928  0.59116692    -0.22900
H1869       H  0.07491463  0.39365676  0.63826825     0.18900
H1870       H  0.17698992  0.42109937  0.61745098     0.17700
H1871       H  0.18523958  0.41173081  0.66587124     0.14000
H1872       H  0.06890794  0.38841023  0.58958238     0.13900
H1873       H  0.09791032  0.38717694  0.68090102     0.32000
H1874       H  0.15640612  0.41042648  0.57411650     0.34800
C1875       C  0.43893716  0.17947417  0.61034969     0.20400
C1876       C  0.43614705  0.19363547  0.63255701    -0.39500
C1877       C  0.44076018  0.16855007  0.65024337     0.19400
C1878       C  0.44751461  0.13216895  0.64591375     0.22000
C1879       C  0.45064619  0.11815209  0.62373948    -0.40000
C1880       C  0.44614699  0.14322219  0.60611010     0.20800
N1881       N  0.43332291  0.19688088  0.59079334    -0.33300
C1882       C  0.43704997  0.17166861  0.57396202    -0.10800
C1883       C  0.44533626  0.13786553  0.58281414    -0.29600
N1884       N  0.44715617  0.11282221  0.66522089    -0.46200
C1885       C  0.44002801  0.13670860  0.68208335    -0.05500
C1886       C  0.43633933  0.17205227  0.67348979    -0.22900
H1887       H  0.42956732  0.22168271  0.63579110     0.18900
H1888       H  0.45495971  0.08940161  0.62046031     0.17700
H1889       H  0.44893586  0.11249367  0.57357800     0.14000
H1890       H  0.42861631  0.19602677  0.68255517     0.13900
H1891       H  0.42663819  0.22409971  0.58903234     0.32000
H1892       H  0.44962215  0.08440135  0.66662657     0.34800
C1893       C  0.32610511  0.04583037  0.49966124     0.20400
C1894       C  0.30773412  0.02073195  0.48886270    -0.39500
C1895       C  0.28890058  0.00163453  0.50311076     0.19400
C1896       C  0.28785091  0.00784354  0.52633372     0.22000
C1897       C  0.30652608  0.03268680  0.53722144    -0.40000
C1898       C  0.32595449  0.05111078  0.52299358     0.20800
N1899       N  0.34444120  0.06907157  0.48963210    -0.33300
C1900       C  0.35662043  0.08884714  0.50663729    -0.10800
C1901       C  0.34574273  0.07838489  0.52775990    -0.29600
N1902       N  0.26562109  0.98975941  0.53558050    -0.46200
C1903       C  0.25267183  0.97155867  0.51817547    -0.05500
C1904       C  0.26685803  0.97795232  0.49772204    -0.22900
H1905       H  0.30747174  0.01721490  0.47057360     0.18900
H1906       H  0.30538756  0.03815056  0.55531286     0.17700
H1907       H  0.35028817  0.09073405  0.54414703     0.14000
H1908       H  0.26020019  0.96942533  0.48087412     0.13900
H1909       H  0.34785822  0.07214648  0.47218478     0.32000
H1910       H  0.25864624  0.99144646  0.55243426     0.34800
C1911       C  0.53807607  0.25267637  0.48441354     0.20400
C1912       C  0.55456298  0.27530365  0.47016412    -0.39500
C1913       C  0.57710958  0.29451817  0.48073601     0.19400
C1914       C  0.58288198  0.29128981  0.50372894     0.22000
C1915       C  0.56598289  0.26948171  0.51803996    -0.40000
C1916       C  0.54346321  0.25037562  0.50750402     0.20800
N1917       N  0.51394009  0.23430628  0.47899089    -0.33300
C1918       C  0.50364496  0.22071862  0.49882006    -0.10800
C1919       C  0.52154688  0.23025677  0.51691740    -0.29600
N1920       N  0.60426751  0.31392807  0.50996607    -0.46200
C1921       C  0.61183591  0.33243175  0.49096485    -0.05500
C1922       C  0.59542810  0.32096715  0.47234819    -0.22900
H1923       H  0.54956420  0.27872959  0.45232651     0.18900
H1924       H  0.56948428  0.26850107  0.53622408     0.17700
H1925       H  0.51766101  0.22579768  0.53484267     0.14000
H1926       H  0.59581033  0.33194596  0.45527913     0.13900
H1927       H  0.50367483  0.23400390  0.46321061     0.32000
H1928       H  0.61186083  0.31842850  0.52645456     0.34800
C1929       C  0.40652364  0.36332234  0.46319981     0.20400
C1930       C  0.42066924  0.39723267  0.46363933    -0.39500
C1931       C  0.40306864  0.42838521  0.46314364     0.19400
C1932       C  0.37351443  0.42593976  0.46237588     0.22000
C1933       C  0.35938935  0.39198514  0.46144406    -0.40000
C1934       C  0.37701095  0.36080179  0.46188690     0.20800
N1935       N  0.41807916  0.33039903  0.46769342    -0.33300
C1936       C  0.39584143  0.30676935  0.46936701    -0.10800
C1937       C  0.36990152  0.32455051  0.46540194    -0.29600
N1938       N  0.36155538  0.45882399  0.46667873    -0.46200
C1939       C  0.38360475  0.48221291  0.47036903    -0.05500
C1940       C  0.40982290  0.46444079  0.46774174    -0.22900
H1941       H  0.44355352  0.39921277  0.46615682     0.18900
H1942       H  0.33631731  0.38997600  0.46229048     0.17700
H1943       H  0.34862936  0.31345998  0.46769072     0.14000
H1944       H  0.43079145  0.47529177  0.47172952     0.13900
H1945       H  0.43950142  0.32503481  0.47151114     0.32000
H1946       H  0.33982393  0.46421841  0.46915830     0.34800
C1947       C  0.29750354  0.28828621  0.53804441     0.20400
C1948       C  0.28107766  0.32004599  0.53468111    -0.39500
C1949       C  0.25139022  0.31496086  0.53469113     0.19400
C1950       C  0.23908054  0.28090855  0.53831139     0.22000
C1951       C  0.25544053  0.24915786  0.54136577    -0.40000
C1952       C  0.28504812  0.25411015  0.54090823     0.20800
N1953       N  0.32574481  0.28486225  0.53468325    -0.33300
C1954       C  0.33099209  0.24831083  0.53454784    -0.10800
C1955       C  0.30628022  0.22826803  0.53880672    -0.29600
N1956       N  0.21079051  0.28236383  0.53506591    -0.46200
C1957       C  0.20507964  0.31722822  0.52871143    -0.05500
C1958       C  0.22977132  0.33860099  0.52841686    -0.22900
H1959       H  0.29072991  0.34621105  0.53064385     0.18900
H1960       H  0.24581603  0.22218776  0.54228804     0.17700
H1961       H  0.30359922  0.19879627  0.53759038     0.14000
H1962       H  0.23188403  0.36672011  0.52279714     0.13900
H1963       H  0.33979554  0.30563831  0.52974658     0.32000
H1964       H  0.19660075  0.26021836  0.53515801     0.34800
C1965       C  0.33087125  0.16953257  0.14705566     0.20400
C1966       C  0.32905379  0.18346816  0.12488646    -0.39500
C1967       C  0.33312972  0.15788712  0.10730920     0.19400
C1968       C  0.33885269  0.12128959  0.11160266     0.22000
C1969       C  0.34050165  0.10726654  0.13379465    -0.40000
C1970       C  0.33615822  0.13282113  0.15139360     0.20800
N1971       N  0.33051594  0.18892222  0.16647356    -0.33300
C1972       C  0.33568593  0.16459603  0.18334733    -0.10800
C1973       C  0.33888043  0.12910321  0.17469637    -0.29600
N1974       N  0.34336373  0.10300110  0.09207344    -0.46200
C1975       C  0.34028401  0.12796954  0.07518437    -0.05500
C1976       C  0.33379299  0.16258121  0.08399915    -0.22900
H1977       H  0.32555467  0.21233594  0.12159511     0.18900
H1978       H  0.34562209  0.07880042  0.13710431     0.17700
H1979       H  0.34494530  0.10467467  0.18393465     0.14000
H1980       H  0.33078604  0.18784431  0.07469057     0.13900
H1981       H  0.32859240  0.21741049  0.16804973     0.32000
H1982       H  0.34848963  0.07519718  0.09034279     0.34800
C1983       C  0.20760660  0.29856259  0.27704944     0.20400
C1984       C  0.23172617  0.28493010  0.28860177    -0.39500
C1985       C  0.24538126  0.25444502  0.27857701     0.19400
C1986       C  0.23595141  0.23913328  0.25835459     0.22000
C1987       C  0.21179860  0.25275702  0.24681925    -0.40000
C1988       C  0.19789347  0.28288345  0.25702199     0.20800
N1989       N  0.19212655  0.32862581  0.28231179    -0.33300
C1990       C  0.17220898  0.33214135  0.26563906    -0.10800
C1991       C  0.17511000  0.30397375  0.24956082    -0.29600
N1992       N  0.25519427  0.21474394  0.25039140    -0.46200
C1993       C  0.27717596  0.21438998  0.26548118    -0.05500
C1994       C  0.27151205  0.23846911  0.28350474    -0.22900
H1995       H  0.24004326  0.29815883  0.30374020     0.18900
H1996       H  0.20510101  0.24175212  0.23053677     0.17700
H1997       H  0.16299999  0.30034460  0.23402574     0.14000
H1998       H  0.28640230  0.24725621  0.29653278     0.13900
H1999       H  0.19543459  0.34631218  0.29610438     0.32000
H2000       H  0.25504004  0.20247018  0.23428803     0.34800
C2001       C  0.37103365  0.36716442  0.28867957     0.20400
C2002       C  0.35627505  0.40065856  0.28784413    -0.39500
C2003       C  0.37332482  0.43223125  0.28742160     0.19400
C2004       C  0.40292415  0.43057678  0.28781947     0.22000
C2005       C  0.41768713  0.39710662  0.28903911    -0.40000
C2006       C  0.40063017  0.36550483  0.28941493     0.20800
N2007       N  0.35998965  0.33378878  0.28459323    -0.33300
C2008       C  0.38265537  0.31086438  0.28230208    -0.10800
C2009       C  0.40833702  0.32944233  0.28582102    -0.29600
N2010       N  0.41420691  0.46352727  0.28305439    -0.46200
C2011       C  0.39167045  0.48614709  0.27938378    -0.05500
C2012       C  0.36582049  0.46783538  0.28242817    -0.22900
H2013       H  0.33330651  0.40190680  0.28564154     0.18900
H2014       H  0.44075772  0.39563820  0.28774061     0.17700
H2015       H  0.42973977  0.31904700  0.28290723     0.14000
H2016       H  0.34456865  0.47803676  0.27873434     0.13900
H2017       H  0.33859926  0.32781453  0.28102015     0.32000
H2018       H  0.43581174  0.46940224  0.28039208     0.34800
C2019       C  0.50431512  0.02029467  0.22827311     0.20400
C2020       C  0.49252460  0.05223074  0.21877771    -0.39500
C2021       C  0.46699957  0.06480753  0.22862612     0.19400
C2022       C  0.45406326  0.04677499  0.24653616     0.22000
C2023       C  0.46610047  0.01494173  0.25623367    -0.40000
C2024       C  0.49179996  0.00232616  0.24638295     0.20800
N2025       N  0.52962891  0.00507498  0.22310922    -0.33300
C2026       C  0.53385562  0.97734546  0.23808114    -0.10800
C2027       C  0.51045600  0.97444302  0.25282014    -0.29600
N2028       N  0.43099205  0.06568745  0.25380790    -0.46200
C2029       C  0.42938246  0.09604004  0.24058192    -0.05500
C2030       C  0.45159762  0.09656631  0.22475710    -0.22900
H2031       H  0.50307648  0.06699493  0.20523516     0.18900
H2032       H  0.45666760  0.00174225  0.27086816     0.17700
H2033       H  0.50832878  0.95633276  0.26724968     0.14000
H2034       H  0.45667596  0.11823023  0.21289202     0.13900
H2035       H  0.54404659  0.01453293  0.21090097     0.32000
H2036       H  0.41820367  0.05962349  0.26785736     0.34800
C2037       C  0.40969331  0.15332239  0.35441940     0.20400
C2038       C  0.42945230  0.15611881  0.37230004    -0.39500
C2039       C  0.41896434  0.14780601  0.39397377     0.19400
C2040       C  0.39073238  0.13801824  0.39753753     0.22000
C2041       C  0.37097907  0.13482036  0.37956672    -0.40000
C2042       C  0.38164355  0.14253949  0.35778970     0.20800
N2043       N  0.41396691  0.16258417  0.33266869    -0.33300
C2044       C  0.38864943  0.15731707  0.32192899    -0.10800
C2045       C  0.36791846  0.14440831  0.33694744    -0.29600
N2046       N  0.38507148  0.13701513  0.41990366    -0.46200
C2047       C  0.40979472  0.14601444  0.43066538    -0.05500
C2048       C  0.43153119  0.15258193  0.41504570    -0.22900
H2049       H  0.45109045  0.16571435  0.36965244     0.18900
H2050       H  0.34868448  0.12836803  0.38245426     0.17700
H2051       H  0.34559958  0.13906746  0.33336810     0.14000
H2052       H  0.45254059  0.16369803  0.41853682     0.13900
H2053       H  0.43287604  0.17268958  0.32560877     0.32000
H2054       H  0.36496202  0.13379625  0.42739356     0.34800
C2055       C  0.69625420  0.37211181  0.35838619     0.20400
C2056       C  0.69632588  0.35612472  0.38011297    -0.39500
C2057       C  0.69732338  0.38062096  0.39863399     0.19400
C2058       C  0.69787915  0.41829175  0.39568822     0.22000
C2059       C  0.69857992  0.43425437  0.37395236    -0.40000
C2060       C  0.69784642  0.40972606  0.35541015     0.20800
N2061       N  0.69053441  0.35520670  0.33850099    -0.33300
C2062       C  0.68853660  0.38204756  0.32265672    -0.10800
C2063       C  0.69356316  0.41643023  0.33250390    -0.29600
N2064       N  0.69364856  0.43565516  0.41567240    -0.46200
C2065       C  0.69060267  0.40896808  0.43150116    -0.05500
C2066       C  0.69326696  0.37425266  0.42157353    -0.22900
H2067       H  0.69368924  0.32686666  0.38244666     0.18900
H2068       H  0.69764886  0.46369526  0.37164944     0.17700
H2069       H  0.69096976  0.44295234  0.32454231     0.14000
H2070       H  0.68944181  0.34803674  0.42959928     0.13900
H2071       H  0.68595331  0.32737356  0.33617668     0.32000
H2072       H  0.69089284  0.46386449  0.41814411     0.34800
C2073       C  0.54017653  0.55193727  0.25734704     0.20400
C2074       C  0.56435757  0.53739781  0.24628344    -0.39500
C2075       C  0.57907275  0.50953704  0.25784628     0.19400
C2076       C  0.57013404  0.49667370  0.27876033     0.22000
C2077       C  0.54594017  0.51132424  0.28991083    -0.40000
C2078       C  0.53140839  0.53965354  0.27845024     0.20800
N2079       N  0.52060453  0.57480384  0.24844469    -0.33300
C2080       C  0.49911465  0.57747297  0.26386049    -0.10800
C2081       C  0.50525095  0.55614772  0.28296305    -0.29600
N2082       N  0.58604288  0.46754824  0.28505317    -0.46200
C2083       C  0.60532758  0.46188864  0.26807818    -0.05500
C2084       C  0.60173397  0.48779393  0.25090094    -0.22900
H2085       H  0.57048138  0.54596322  0.22937311     0.18900
H2086       H  0.53821154  0.50029167  0.30582125     0.17700
H2087       H  0.49089240  0.54981544  0.29683640     0.14000
H2088       H  0.61293325  0.48901541  0.23481248     0.13900
H2089       H  0.52050120  0.58510363  0.23189305     0.32000
H2090       H  0.58314119  0.45148813  0.29953591     0.34800
C2091       C  0.78034971  0.29113996  0.24448684     0.20400
C2092       C  0.80544286  0.28092216  0.25622129    -0.39500
C2093       C  0.81885500  0.24826290  0.24874388     0.19400
C2094       C  0.80768788  0.22711763  0.23125330     0.22000
C2095       C  0.78276956  0.23728723  0.21957004    -0.40000
C2096       C  0.76975959  0.27010314  0.22673827     0.20800
N2097       N  0.76228198  0.31914595  0.24936112    -0.33300
C2098       C  0.74001709  0.31565573  0.23462845    -0.10800
C2099       C  0.74426490  0.28561788  0.22014240    -0.29600
N2100       N  0.82293973  0.19609679  0.22841109    -0.46200
C2101       C  0.84443618  0.19753922  0.24383379    -0.05500
C2102       C  0.84259703  0.22963596  0.25693425    -0.22900
H2103       H  0.81351949  0.29669527  0.27048139     0.18900
H2104       H  0.77368278  0.22029738  0.20625526     0.17700
H2105       H  0.72950959  0.27482493  0.20759841     0.14000
H2106       H  0.85580171  0.23722078  0.27132271     0.13900
H2107       H  0.76403826  0.33785804  0.26278899     0.32000
H2108       H  0.81850941  0.17460041  0.21711628     0.34800
C2109       C  0.62430589  0.11483227  0.28285445     0.20400
C2110       C  0.60951997  0.14841338  0.28386336    -0.39500
C2111       C  0.62640200  0.18018530  0.28246029     0.19400
C2112       C  0.65575786  0.17861764  0.27956767     0.22000
C2113       C  0.67063633  0.14500553  0.27892591    -0.40000
C2114       C  0.65379548  0.11320281  0.28099165     0.20800
N2115       N  0.61287029  0.08100016  0.28151048    -0.33300
C2116       C  0.63518142  0.05747256  0.27924285    -0.10800
C2117       C  0.66111197  0.07651805  0.27905625    -0.29600
N2118       N  0.66637155  0.21237430  0.27570602    -0.46200
C2119       C  0.64370531  0.23565724  0.27653473    -0.05500
C2120       C  0.61845867  0.21662063  0.28097945    -0.22900
H2121       H  0.58641989  0.14968986  0.28477054     0.18900
H2122       H  0.69349768  0.14366662  0.27612865     0.17700
H2123       H  0.68217025  0.06531961  0.27572485     0.14000
H2124       H  0.59691738  0.22755094  0.28104849     0.13900
H2125       H  0.59114243  0.07443830  0.28089860     0.32000
H2126       H  0.68749743  0.21898092  0.27163343     0.34800
C2127       C  0.52895687  0.29727962  0.21192408     0.20400
C2128       C  0.51209475  0.27000937  0.20185528    -0.39500
C2129       C  0.48254946  0.27572199  0.20281315     0.19400
C2130       C  0.47058354  0.30675448  0.21272171     0.22000
C2131       C  0.48759564  0.33430808  0.22266808    -0.40000
C2132       C  0.51722229  0.32818733  0.22209589     0.20800
N2133       N  0.55698771  0.29499442  0.21632832    -0.33300
C2134       C  0.56317881  0.32412408  0.22980495    -0.10800
C2135       C  0.53906105  0.34594355  0.23351815    -0.29600
N2136       N  0.44248858  0.30165244  0.21628446    -0.46200
C2137       C  0.43690905  0.26665568  0.20969653    -0.05500
C2138       C  0.46114457  0.25022190  0.20038028    -0.22900
H2139       H  0.52120916  0.24444291  0.19576658     0.18900
H2140       H  0.47832641  0.35698469  0.23210684     0.17700
H2141       H  0.53736323  0.37001609  0.24431262     0.14000
H2142       H  0.46398843  0.22134283  0.19651564     0.13900
H2143       H  0.57067227  0.27347499  0.21177034     0.32000
H2144       H  0.42933967  0.31826569  0.22639462     0.34800
C2145       C  0.58724106  0.37669285  0.89662883     0.20400
C2146       C  0.58632095  0.36075067  0.87478663    -0.39500
C2147       C  0.58740763  0.38531571  0.85643583     0.19400
C2148       C  0.58981979  0.42284946  0.85969202     0.22000
C2149       C  0.59029370  0.43880285  0.88150551    -0.40000
C2150       C  0.58861494  0.41432739  0.89981868     0.20800
N2151       N  0.58973203  0.35921886  0.91664787    -0.33300
C2152       C  0.59230180  0.38588040  0.93272005    -0.10800
C2153       C  0.59136331  0.42063900  0.92289843    -0.29600
N2154       N  0.59466934  0.43979116  0.83980869    -0.46200
C2155       C  0.59518115  0.41305082  0.82366815    -0.05500
C2156       C  0.59025722  0.37869118  0.83334566    -0.22900
H2157       H  0.58618602  0.33129311  0.87226682     0.18900
H2158       H  0.59316500  0.46802218  0.88404314     0.17700
H2159       H  0.59487562  0.44678136  0.93127866     0.14000
H2160       H  0.59163471  0.35219608  0.82498945     0.13900
H2161       H  0.59110066  0.33089172  0.91912782     0.32000
H2162       H  0.59931048  0.46758300  0.83754708     0.34800
C2163       C  0.60497973  0.40835240  0.11263390     0.20400
C2164       C  0.59589731  0.40462482  0.13530236    -0.39500
C2165       C  0.61735514  0.40732157  0.15202115     0.19400
C2166       C  0.64580777  0.41340477  0.14672016     0.22000
C2167       C  0.65486112  0.41713965  0.12405354    -0.40000
C2168       C  0.63343168  0.41437824  0.10732605     0.20800
N2169       N  0.58971752  0.40097992  0.09365124    -0.33300
C2170       C  0.60863030  0.40207444  0.07616045    -0.10800
C2171       C  0.63597894  0.41053769  0.08409174    -0.29600
N2172       N  0.66252497  0.40938453  0.16529926    -0.46200
C2173       C  0.64460924  0.40012684  0.18247312    -0.05500
C2174       C  0.61632430  0.39896660  0.17481272    -0.22900
H2175       H  0.57406735  0.39753056  0.13953639     0.18900
H2176       H  0.67725903  0.41943451  0.11964335     0.17700
H2177       H  0.65567822  0.40972418  0.07442234     0.14000
H2178       H  0.59784431  0.38947835  0.18418893     0.13900
H2179       H  0.56855283  0.39188323  0.09292533     0.32000
H2180       H  0.68485866  0.40912614  0.16571084     0.34800
C2181       C  0.48727116  0.28853497  0.02199376     0.20400
C2182       C  0.46867204  0.26450524  0.03342891    -0.39500
C2183       C  0.44897759  0.24537984  0.01972014     0.19400
C2184       C  0.44833037  0.24939059  0.99632975     0.22000
C2185       C  0.46642922  0.27410550  0.98497476    -0.40000
C2186       C  0.48575773  0.29373886  0.99872603     0.20800
N2187       N  0.51004458  0.30625042  0.03073119    -0.33300
C2188       C  0.52297755  0.32329489  0.01302337    -0.10800
C2189       C  0.50816796  0.31657033  0.99280352    -0.29600
N2190       N  0.43016133  0.22505709  0.98687702    -0.46200
C2191       C  0.41868943  0.20586043  0.00434084    -0.05500
C2192       C  0.42967727  0.21798198  0.02514723    -0.22900
H2193       H  0.47029496  0.25979169  0.05154361     0.18900
H2194       H  0.46637016  0.27661274  0.96664101     0.17700
H2195       H  0.51459083  0.32425819  0.97579728     0.14000
H2196       H  0.42554538  0.20660338  0.04179299     0.13900
H2197       H  0.51736150  0.30503274  0.04749742     0.32000
H2198       H  0.42637549  0.22096955  0.96953806     0.34800
C2199       C  0.63002493  0.11510514  0.97482230     0.20400
C2200       C  0.60988893  0.14367068  0.97426010    -0.39500
C2201       C  0.62099198  0.17919904  0.97646024     0.19400
C2202       C  0.65005082  0.18576149  0.97847620     0.22000
C2203       C  0.67012817  0.15715482  0.97965862    -0.40000
C2204       C  0.65894067  0.12156453  0.97798504     0.20800
N2205       N  0.62447588  0.07903759  0.97555056    -0.33300
C2206       C  0.64978975  0.06244770  0.97999639    -0.10800
C2207       C  0.67188875  0.08800809  0.98148757    -0.29600
N2208       N  0.65500491  0.22167198  0.98166092    -0.46200
C2209       C  0.62893536  0.23790678  0.98237893    -0.05500
C2210       C  0.60713222  0.21237870  0.97921031    -0.22900
H2211       H  0.58712870  0.13848677  0.97331194     0.18900
H2212       H  0.69260305  0.16220934  0.98277244     0.17700
H2213       H  0.69392398  0.08298733  0.98620291     0.14000
H2214       H  0.58430165  0.21716448  0.98002730     0.13900
H2215       H  0.60429706  0.06674655  0.97520439     0.32000
H2216       H  0.67475249  0.23402596  0.98493294     0.34800
C2217       C  0.73432835  0.54388655  0.01016580     0.20400
C2218       C  0.71148046  0.52737976  0.02168561    -0.39500
C2219       C  0.69344146  0.50527802  0.00842373     0.19400
C2220       C  0.69815789  0.49937809  0.98544959     0.22000
C2221       C  0.72080312  0.51641536  0.97379113    -0.40000
C2222       C  0.73859041  0.53916596  0.98702664     0.20800
N2223       N  0.75631762  0.56211739  0.01957096    -0.33300
C2224       C  0.77461423  0.56962520  0.00237247    -0.10800
C2225       C  0.76422059  0.55604648  0.98171831    -0.29600
N2226       N  0.68041248  0.47325215  0.97746981    -0.46200
C2227       C  0.66415100  0.46282628  0.99544241    -0.05500
C2228       C  0.67138991  0.48255973  0.01495145    -0.22900
H2229       H  0.70881248  0.53002734  0.03990721     0.18900
H2230       H  0.72513034  0.51086868  0.95601495     0.17700
H2231       H  0.77532923  0.55519006  0.96556992     0.14000
H2232       H  0.66341277  0.47838694  0.03202543     0.13900
H2233       H  0.75970274  0.56689465  0.03690114     0.32000
H2234       H  0.68037183  0.46183131  0.96113156     0.34800
C2235       C  0.84907257  0.11471347  0.61177572     0.20400
C2236       C  0.85391732  0.09995190  0.63346601    -0.39500
C2237       C  0.84507023  0.12177278  0.65186282     0.19400
C2238       C  0.83285855  0.15598168  0.64870504     0.22000
C2239       C  0.82815365  0.17085892  0.62697642    -0.40000
C2240       C  0.83652280  0.14870240  0.60854942     0.20800
N2241       N  0.85563515  0.09922980  0.59176429    -0.33300
C2242       C  0.84710841  0.12315535  0.57550564    -0.10800
C2243       C  0.83499336  0.15455002  0.58527980    -0.29600
N2244       N  0.82859755  0.17261346  0.66879697    -0.46200
C2245       C  0.83797965  0.14901655  0.68495871    -0.05500
C2246       C  0.84831555  0.11673903  0.67506360    -0.22900
H2247       H  0.86415409  0.07357171  0.63581409     0.18900
H2248       H  0.81897233  0.19787136  0.62463686     0.17700
H2249       H  0.82637897  0.17827123  0.57662684     0.14000
H2250       H  0.85926046  0.09438430  0.68345779     0.13900
H2251       H  0.86526847  0.07360976  0.58932088     0.32000
H2252       H  0.82157338  0.19957203  0.67134132     0.34800
C2253       C  0.69728669  0.28334561  0.75738513     0.20400
C2254       C  0.70984821  0.25422663  0.74509075    -0.39500
C2255       C  0.73389893  0.23760692  0.75517120     0.19400
C2256       C  0.74459548  0.24894893  0.77599414     0.22000
C2257       C  0.73230376  0.27839485  0.78810782    -0.40000
C2258       C  0.70833456  0.29507078  0.77800489     0.20800
N2259       N  0.67570794  0.30547530  0.75066797    -0.33300
C2260       C  0.67320495  0.33181410  0.76699043    -0.10800
C2261       C  0.69318333  0.32603903  0.78432522    -0.29600
N2262       N  0.76954839  0.23191938  0.78055404    -0.46200
C2263       C  0.77520597  0.21006352  0.76235381    -0.05500
C2264       C  0.75330650  0.21279131  0.74625794    -0.22900
H2265       H  0.70229552  0.24624422  0.72838340     0.18900
H2266       H  0.74155124  0.28869706  0.80376152     0.17700
H2267       H  0.69705006  0.34329344  0.79905023     0.14000
H2268       H  0.75327829  0.20143530  0.72920432     0.13900
H2269       H  0.66445243  0.30393770  0.73535127     0.32000
H2270       H  0.78352242  0.23809563  0.79389927     0.34800
C2271       C  0.89600466  0.35860857  0.78381626     0.20400
C2272       C  0.91471558  0.38862707  0.78395384    -0.39500
C2273       C  0.90172700  0.42324193  0.78305827     0.19400
C2274       C  0.87229670  0.42759568  0.78230939     0.22000
C2275       C  0.85361450  0.39759373  0.78196429    -0.40000
C2276       C  0.86660177  0.36300155  0.78267209     0.20800
N2277       N  0.90315288  0.32317160  0.78124490    -0.33300
C2278       C  0.87820675  0.30507896  0.77792211    -0.10800
C2279       C  0.85490444  0.32888394  0.77902062    -0.29600
N2280       N  0.86538622  0.46274860  0.77855190    -0.46200
C2281       C  0.89053984  0.48070471  0.77631853    -0.05500
C2282       C  0.91371870  0.45715331  0.77934710    -0.22900
H2283       H  0.93770268  0.38519932  0.78324488     0.18900
H2284       H  0.83077066  0.40090887  0.77975404     0.17700
H2285       H  0.83274881  0.32264242  0.77531610     0.14000
H2286       H  0.93616311  0.46330531  0.77695183     0.13900
H2287       H  0.92382179  0.31254847  0.77955297     0.32000
H2288       H  0.84492342  0.47313897  0.77542902     0.34800
C2289       C  0.00259141  0.01550820  0.73107229     0.20400
C2290       C  0.98827832  0.04565436  0.72163162    -0.39500
C2291       C  0.96325434  0.05675829  0.73281449     0.19400
C2292       C  0.95294456  0.03898233  0.75188553     0.22000
C2293       C  0.96732080  0.00866911  0.76135858    -0.40000
C2294       C  0.99261803  0.99767540  0.75022396     0.20800
N2295       N  0.02832777  0.00245891  0.72493911    -0.33300
C2296       C  0.03515607  0.97620064  0.74028583    -0.10800
C2297       C  0.01324770  0.97214546  0.75626136    -0.29600
N2298       N  0.93029098  0.05721886  0.76056030    -0.46200
C2299       C  0.92650532  0.08684051  0.74698474    -0.05500
C2300       C  0.94659889  0.08746428  0.72955090    -0.22900
H2301       H  0.99681806  0.06057904  0.70728668     0.18900
H2302       H  0.96010483  0.99574437  0.77686155     0.17700
H2303       H  0.01334648  0.95486645  0.77117642     0.14000
H2304       H  0.94973032  0.10884932  0.71708316     0.13900
H2305       H  0.04122428  0.01234857  0.71182408     0.32000
H2306       H  0.91935267  0.05134522  0.77559721     0.34800
C2307       C  0.96972611  0.29623227  0.71744462     0.20400
C2308       C  0.98581415  0.32401678  0.72788320    -0.39500
C2309       C  0.01544885  0.32080392  0.72559335     0.19400
C2310       C  0.02804879  0.29254728  0.71328343     0.22000
C2311       C  0.01201751  0.26481425  0.70284454    -0.40000
C2312       C  0.98243438  0.26735479  0.70574349     0.20800
N2313       N  0.94219580  0.28887603  0.72152682    -0.33300
C2314       C  0.93770303  0.25455664  0.71339063    -0.10800
C2315       C  0.96210252  0.24044635  0.70302525    -0.29600
N2316       N  0.05637506  0.29249431  0.71633179    -0.46200
C2317       C  0.06171109  0.32022452  0.73110860    -0.05500
C2318       C  0.03687004  0.33900727  0.73702534    -0.22900
H2319       H  0.97609848  0.34455632  0.73880977     0.18900
H2320       H  0.02201450  0.24107873  0.69502154     0.17700
H2321       H  0.96566324  0.21244633  0.69742737     0.14000
H2322       H  0.03457913  0.36105790  0.74931297     0.13900
H2323       H  0.92867978  0.30367568  0.73238903     0.32000
H2324       H  0.07090589  0.27306725  0.71010573     0.34800
C2325       C  0.94263424  0.15081860  0.10824116     0.20400
C2326       C  0.94846001  0.12304765  0.12390819    -0.39500
C2327       C  0.94512466  0.13277053  0.14681889     0.19400
C2328       C  0.93710164  0.16770410  0.15377905     0.22000
C2329       C  0.93108155  0.19550447  0.13805063    -0.40000
C2330       C  0.93396370  0.18556614  0.11505781     0.20800
N2331       N  0.94181789  0.14743874  0.08549891    -0.33300
C2332       C  0.93206333  0.18004286  0.07780264    -0.10800
C2333       C  0.92710027  0.20462868  0.09568268    -0.29600
N2334       N  0.93283918  0.16878258  0.17642160    -0.46200
C2335       C  0.93754803  0.13406443  0.18366220    -0.05500
C2336       C  0.94542459  0.11100190  0.16574965    -0.22900
H2337       H  0.95378184  0.09536272  0.11860832     0.18900
H2338       H  0.92338107  0.22228833  0.14328057     0.17700
H2339       H  0.91856644  0.23221937  0.09466711     0.14000
H2340       H  0.94879908  0.08160319  0.16629209     0.13900
H2341       H  0.94633776  0.12393161  0.07589266     0.32000
H2342       H  0.92486143  0.19077379  0.18598136     0.34800
C2343       C  0.79239152  0.29355644  0.04584864     0.20400
C2344       C  0.77546755  0.32461184  0.04182575    -0.39500
C2345       C  0.74588912  0.31907598  0.04261812     0.19400
C2346       C  0.73396457  0.28538335  0.04793155     0.22000
C2347       C  0.75087436  0.25432310  0.05206849    -0.40000
C2348       C  0.78046889  0.25953072  0.05037993     0.20800
N2349       N  0.82020715  0.29010741  0.04074078    -0.33300
C2350       C  0.82571253  0.25364574  0.04093640    -0.10800
C2351       C  0.80168847  0.23370468  0.04741483    -0.29600
N2352       N  0.70573284  0.28563641  0.04388107    -0.46200
C2353       C  0.69990282  0.31914926  0.03514912    -0.05500
C2354       C  0.72425695  0.34102598  0.03446985    -0.22900
H2355       H  0.78462755  0.35020604  0.03605542     0.18900
H2356       H  0.74159585  0.22729786  0.05398185     0.17700
H2357       H  0.79909328  0.20417773  0.04692391     0.14000
H2358       H  0.72636917  0.36791035  0.02689567     0.13900
H2359       H  0.83345177  0.31064443  0.03426475     0.32000
H2360       H  0.69191743  0.26314604  0.04462992     0.34800
C2361       C  0.90203889  0.16864184  0.85959164     0.20400
C2362       C  0.91914669  0.18075869  0.87769045    -0.39500
C2363       C  0.91301546  0.16542926  0.89887538     0.19400
C2364       C  0.89125013  0.14020941  0.90186481     0.22000
C2365       C  0.87401508  0.12811939  0.88365471    -0.40000
C2366       C  0.88038631  0.14319405  0.86228327     0.20800
N2367       N  0.90349637  0.17971982  0.83799505    -0.33300
C2368       C  0.88284306  0.16119378  0.82651049    -0.10800
C2369       C  0.86784546  0.13795985  0.84109474    -0.29600
N2370       N  0.88771190  0.13309558  0.92409645    -0.46200
C2371       C  0.90734433  0.15385083  0.93525013    -0.05500
C2372       C  0.92353143  0.17433429  0.92005978    -0.22900
H2373       H  0.93556917  0.20137087  0.87551854     0.18900
H2374       H  0.85653953  0.10908186  0.88606020     0.17700
H2375       H  0.85032085  0.11982274  0.83682284     0.14000
H2376       H  0.93864914  0.19587764  0.92413970     0.13900
H2377       H  0.91801320  0.19869464  0.83141049     0.32000
H2378       H  0.87117050  0.11791494  0.93139330     0.34800
C2379       C  0.78562893  0.00418911  0.02474331     0.20400
C2380       C  0.80403140  0.02760318  0.03708960    -0.39500
C2381       C  0.82352438  0.04825425  0.02413894     0.19400
C2382       C  0.82413474  0.04609293  0.00064116     0.22000
C2383       C  0.80618378  0.02218821  0.98835969    -0.40000
C2384       C  0.78710002  0.00108683  0.00130815     0.20800
N2385       N  0.76273625  0.98585013  0.03270303    -0.33300
C2386       C  0.74964004  0.97065111  0.01430368    -0.10800
C2387       C  0.76456628  0.97905123  0.99443511    -0.29600
N2388       N  0.84173590  0.07169838  0.99207141    -0.46200
C2389       C  0.85291567  0.09006913  0.01011328    -0.05500
C2390       C  0.84225686  0.07603225  0.03050591    -0.22900
H2391       H  0.80227874  0.03091813  0.05534073     0.18900
H2392       H  0.80605141  0.02149618  0.96995355     0.17700
H2393       H  0.75793499  0.97342310  0.97712671     0.14000
H2394       H  0.84589829  0.08663861  0.04748842     0.13900
H2395       H  0.75525160  0.98590217  0.04944316     0.32000
H2396       H  0.84501372  0.07750688  0.97488535     0.34800
C2397       C  0.03040571  0.25944136  0.98427276     0.20400
C2398       C  0.04578635  0.28375181  0.97028446    -0.39500
C2399       C  0.07084998  0.29889791  0.97977376     0.19400
C2400       C  0.08005672  0.29020499  0.00146168     0.22000
C2401       C  0.06451255  0.26629805  0.01549857    -0.40000
C2402       C  0.03937051  0.25142787  0.00611977     0.20800
N2403       N  0.00448364  0.24450762  0.98019218    -0.33300
C2404       C  0.99674082  0.22716361  0.99963041    -0.10800
C2405       C  0.01795338  0.23106183  0.01617465    -0.29600
N2406       N  0.10300528  0.31053269  0.00733169    -0.46200
C2407       C  0.10822877  0.33298811  0.98949013    -0.05500
C2408       C  0.08870786  0.32629137  0.97189451    -0.22900
H2409       H  0.03808939  0.29163850  0.95364676     0.18900
H2410       H  0.07082799  0.26101550  0.03288518     0.17700
H2411       H  0.01685937  0.22253519  0.03375897     0.14000
H2412       H  0.08669096  0.34117548  0.95608703     0.13900
H2413       H  0.99180397  0.24840275  0.96577148     0.32000
H2414       H  0.11313203  0.31107495  0.02316372     0.34800
C2415       C  0.89902846  0.36355301  0.96174008     0.20400
C2416       C  0.91370096  0.39705253  0.96104565    -0.39500
C2417       C  0.89659457  0.42864378  0.96151565     0.19400
C2418       C  0.86701854  0.42696949  0.96261495     0.22000
C2419       C  0.85232275  0.39345393  0.96270163    -0.40000
C2420       C  0.86942396  0.36186119  0.96224867     0.20800
N2421       N  0.91040743  0.33064139  0.96648477    -0.33300
C2422       C  0.88794847  0.30804466  0.97026400    -0.10800
C2423       C  0.86204831  0.32622178  0.96716819    -0.29600
N2424       N  0.85605309  0.46004277  0.96783341    -0.46200
C2425       C  0.87876586  0.48278337  0.97022187    -0.05500
C2426       C  0.90435124  0.46442748  0.96585803    -0.22900
H2427       H  0.93677427  0.39845142  0.96231971     0.18900
H2428       H  0.82941219  0.39207557  0.96521068     0.17700
H2429       H  0.84091522  0.31616689  0.97133222     0.14000
H2430       H  0.92580246  0.47463600  0.96868960     0.13900
H2431       H  0.93199289  0.32495256  0.96946731     0.32000
H2432       H  0.83474773  0.46588170  0.97183571     0.34800
loop_ 
_geom_bond_atom_site_label_1 
_geom_bond_atom_site_label_2 
_geom_bond_distance 
_geom_bond_site_symmetry_2 
_ccdc_geom_bond_type 
O1           C16   1.258       .  A
O1           Al9   1.887   1_556  S
C2           O12   1.263       .  A
C2            O3   1.259   1_554  A
C2         C2389   1.479       .  S
O3           Al5   1.915       .  S
O4            C6   1.260       .  A
O4           Al5   1.894   1_554  S
Al5          O13   1.866       .  S
Al5          O15   1.934       .  S
Al5          O14   1.777   1_556  S
C6           O19   1.265       .  A
C6         C2350   1.461       .  S
O7           C17   1.258       .  A
O7           Al9   1.866       .  S
O8           C21   1.262   1_556  A
O8          Al18   1.931   1_556  S
Al9          O22   1.913       .  S
Al9          O19   1.929       .  S
Al9          O14   1.780       .  S
O10          C17   1.271       .  A
O10         Al18   1.943       .  S
O11          C20   1.270       .  A
O11         Al18   1.948   1_556  S
O12         Al18   1.931       .  S
O13          C20   1.258       .  A
O14         Al18   1.772       .  S
O15          C16   1.266       .  A
C16        C2422   1.462       .  S
C17        C2332   1.465       .  S
C20        C2371   1.459       .  S
C21          O22   1.258       .  A
C21        C2404   1.479   1_554  S
O23          C38   1.265       .  A
O23         Al31   1.886       .  S
C24          O34   1.258       .  A
C24          O25   1.258       .  A
C24        C2299   1.467       .  S
O25         Al27   1.901       .  S
O26          C28   1.254       .  A
O26         Al27   1.894       .  S
Al27         O35   1.851       .  S
Al27         O37   1.939       .  S
Al27         O36   1.771       .  S
C28          O41   1.256       .  A
C28        C2314   1.451       .  S
O29          C39   1.259       .  A
O29         Al31   1.849       .  S
O30          C43   1.260       .  A
O30         Al40   1.933       .  S
Al31         O44   1.900       .  S
Al31         O41   1.913       .  S
Al31         O36   1.785       .  S
O32          C39   1.282       .  A
O32         Al40   1.981       .  S
O33          C42   1.272       .  A
O33         Al40   1.962       .  S
O34         Al40   1.903       .  S
O35          C42   1.254       .  A
O36         Al40   1.778       .  S
O37          C38   1.271       .  A
C38        C2278   1.461       .  S
C39        C2245   1.467       .  S
C42        C2368   1.475       .  S
C43          O44   1.252       .  A
C43        C2263   1.473       .  S
O45          C60   1.263       .  A
O45         Al53   1.900   1_554  S
C46          O56   1.263       .  A
C46          O47   1.262       .  A
C46        C2188   1.478       .  S
O47         Al49   1.921       .  S
O48          C50   1.261   1_554  A
O48         Al49   1.903       .  S
Al49         O57   1.876       .  S
Al49         O59   1.921       .  S
Al49         O58   1.777       .  S
C50          O63   1.262       .  A
C50        C2209   1.463       .  S
O51          C61   1.262       .  A
O51         Al53   1.897       .  S
O52          C65   1.262   1_554  A
O52         Al62   1.911       .  S
Al53         O66   1.924       .  S
Al53         O63   1.921       .  S
Al53         O58   1.776   1_556  S
O54          C61   1.271       .  A
O54         Al62   1.949   1_556  S
O55          C64   1.270       .  A
O55         Al62   1.959       .  S
O56         Al62   1.920       .  S
O57          C64   1.256       .  A
O58         Al62   1.775       .  S
O59          C60   1.264       .  A
C60        C2353   1.463       .  S
C61        C2152   1.474       .  S
C64        C2170   1.474       .  S
C65          O66   1.261       .  A
C65        C2227   1.472       .  S
O67          C82   1.261       .  A
O67         Al75   1.906       .  S
C68          O78   1.265       .  A
C68          O69   1.260       .  A
C68        C2098   1.485       .  S
O69         Al71   1.907       .  S
O70          C72   1.260       .  A
O70         Al71   1.900       .  S
Al71         O79   1.867       .  S
Al71         O81   1.913       .  S
Al71         O80   1.773       .  S
C72          O85   1.268       .  A
C72        C2119   1.475       .  S
O73          C83   1.263       .  A
O73         Al75   1.897       .  S
O74          C87   1.264       .  A
O74         Al84   1.918       .  S
Al75         O88   1.930       .  S
Al75         O85   1.950       .  S
Al75         O80   1.775       .  S
O76          C83   1.273       .  A
O76         Al84   1.958       .  S
O77          C86   1.273       .  A
O77         Al84   1.973       .  S
O78         Al84   1.936       .  S
O79          C86   1.255       .  A
O80         Al84   1.777       .  S
O81          C82   1.263       .  A
C82        C2134   1.465       .  S
C83        C2062   1.480       .  S
C86        C2173   1.478       .  S
C87          O88   1.263       .  A
C87        C2083   1.483       .  S
O89         C104   1.263       .  A
O89         Al97   1.890       .  S
C90         O100   1.259       .  A
C90          O91   1.255       .  A
C90        C2029   1.473       .  S
O91         Al93   1.896       .  S
O92          C94   1.253       .  A
O92         Al93   1.886       .  S
Al93        O101   1.868       .  S
Al93        O103   1.937       .  S
Al93        O102   1.779       .  S
C94         O107   1.258       .  A
C94        C2137   1.461       .  S
O95         C105   1.262       .  A
O95         Al97   1.865       .  S
O96         C109   1.259       .  A
O96        Al106   1.930       .  S
Al97        O110   1.893       .  S
Al97        O107   1.930       .  S
Al97        O102   1.793       .  S
O98         C105   1.275       .  A
O98        Al106   1.952       .  S
O99         C108   1.268       .  A
O99        Al106   1.936       .  S
O100       Al106   1.915       .  S
O101        C108   1.258       .  A
O102       Al106   1.785       .  S
O103        C104   1.269       .  A
C104       C2008   1.466       .  S
C105       C1972   1.467       .  S
C108       C2044   1.469       .  S
C109        O110   1.251       .  A
C109       C1993   1.473       .  S
O111        C126   1.259       .  A
O111       Al119   1.889       .  S
C112        O122   1.262       .  A
C112        O113   1.260       .  A
C112       C1900   1.474       .  S
O113       Al115   1.919       .  S
O114        C116   1.257       .  A
O114       Al115   1.881       .  S
Al115       O123   1.865       .  S
Al115       O125   1.940       .  S
Al115       O124   1.777       .  S
C116        O129   1.263       .  A
C116       C1954   1.455       .  S
O117        C127   1.258       .  A
O117       Al119   1.870       .  S
O118        C131   1.265       .  A
O118       Al128   1.935       .  S
Al119       O132   1.906       .  S
Al119       O129   1.926       .  S
Al119       O124   1.778       .  S
O120        C127   1.272       .  A
O120       Al128   1.954       .  S
O121        C130   1.272       .  A
O121       Al128   1.960       .  S
O122       Al128   1.923       .  S
O123        C130   1.257       .  A
O124       Al128   1.772       .  S
O125        C126   1.267       .  A
C126       C1936   1.467       .  S
C127       C1882   1.472       .  S
C130       C2047   1.465       .  S
C131        O132   1.258       .  A
C131       C1918   1.476       .  S
O133        C148   1.259       .  A
O133       Al141   1.894       .  S
C134        O144   1.266       .  A
C134        O135   1.260       .  A
C134       C1828   1.483       .  S
O135       Al137   1.903       .  S
O136        C138   1.262       .  A
O136       Al137   1.898       .  S
Al137       O145   1.874       .  S
Al137       O147   1.901       .  S
Al137       O146   1.769       .  S
C138        O151   1.267       .  A
C138       C1849   1.466       .  S
O139        C149   1.260       .  A
O139       Al141   1.886       .  S
O140        C153   1.265       .  A
O140       Al150   1.917       .  S
Al141       O154   1.923       .  S
Al141       O151   1.938       .  S
Al141       O146   1.769       .  S
O142        C149   1.271       .  A
O142       Al150   1.954       .  S
O143        C152   1.274       .  A
O143       Al150   1.973       .  S
O144       Al150   1.939       .  S
O145        C152   1.257       .  A
O146       Al150   1.776       .  S
O147        C148   1.259       .  A
C148       C2317   1.455       .  S
C149       C1792   1.474       .  S
C152       C1864   1.476       .  S
C153        O154   1.264       .  A
C153       C1813   1.480       .  S
O155        C170   1.261       .  A
O155       Al163   1.899       .  S
C156        O166   1.263       .  A
C156        O157   1.264       .  A
C156       C1741   1.479       .  S
O157       Al159   1.932       .  S
O158        C160   1.263       .  A
O158       Al159   1.907       .  S
Al159       O167   1.882       .  S
Al159       O169   1.917       .  S
Al159       O168   1.774       .  S
C160        O173   1.263       .  A
C160       C1759   1.469       .  S
O161        C171   1.262       .  A
O161       Al163   1.893       .  S
O162        C175   1.263       .  A
O162       Al172   1.920       .  S
Al163       O176   1.912       .  S
Al163       O173   1.928       .  S
Al163       O168   1.773       .  S
O164        C171   1.271       .  A
O164       Al172   1.954       .  S
O165        C174   1.270       .  A
O165       Al172   1.959       .  S
O166       Al172   1.916       .  S
O167        C174   1.256       .  A
O168       Al172   1.776       .  S
O169        C170   1.264       .  A
C170       C1957   1.459       .  S
C171       C1720   1.476       .  S
C174       C1867   1.474       .  S
C175        O176   1.261       .  A
C175       C1777   1.474       .  S
O177        C192   1.263       .  A
O177       Al185   1.914       .  S
C178        O188   1.264       .  A
C178        O179   1.258       .  A
C178       C1630   1.480       .  S
O179       Al181   1.904       .  S
O180        C182   1.261       .  A
O180       Al181   1.897       .  S
Al181       O189   1.867       .  S
Al181       O191   1.907       .  S
Al181       O190   1.774       .  S
C182        O195   1.267       .  A
C182       C1648   1.469       .  S
O183        C193   1.263       .  A
O183       Al185   1.894       .  S
O184        C197   1.264       .  A
O184       Al194   1.926       .  S
Al185       O198   1.919       .  S
Al185       O195   1.940       .  S
Al185       O190   1.774       .  S
O186        C193   1.270       .  A
O186       Al194   1.947       .  S
O187        C196   1.270       .  A
O187       Al194   1.953       .  S
O188       Al194   1.932       .  S
O189        C196   1.256       .  A
O190       Al194   1.779       .  S
O191        C192   1.260       .  A
C192       C1669   1.466       .  S
C193       C1612   1.477       .  S
C196       C1684   1.463       .  S
C197        O198   1.262       .  A
C197       C1702   1.484       .  S
O199        C214   1.262       .  A
O199       Al207   1.903       .  S
C200        O210   1.263       .  A
C200        O201   1.263       .  A
C200       C1576   1.476       .  S
O201       Al203   1.929       .  S
O202        C204   1.262       .  A
O202       Al203   1.899       .  S
Al203       O211   1.868       .  S
Al203       O213   1.916       .  S
Al203       O212   1.773       .  S
C204        O217   1.264       .  A
C204       C1594   1.461       .  S
O205        C215   1.262       .  A
O205       Al207   1.898       .  S
O206        C219   1.262       .  A
O206       Al216   1.909       .  S
Al207       O220   1.923       .  S
Al207       O217   1.923       .  S
Al207       O212   1.772       .  S
O208        C215   1.270       .  A
O208       Al216   1.950       .  S
O209        C218   1.268       .  A
O209       Al216   1.957       .  S
O210       Al216   1.916       .  S
O211        C218   1.255       .  A
O212       Al216   1.774       .  S
O213        C214   1.263       .  A
C214       C1558   1.460       .  S
C215       C1525   1.477       .  S
C218       C1687   1.467       .  S
C219        O220   1.262       .  A
C219       C1540   1.470       .  S
O221        C236   1.260       .  A
O221       Al229   1.898   1_556  S
C222        O232   1.261       .  A
C222        O223   1.255   1_554  A
C222       C1435   1.473       .  S
O223       Al225   1.902       .  S
O224        C226   1.262       .  A
O224       Al225   1.896   1_554  S
Al225       O233   1.867       .  S
Al225       O235   1.927       .  S
Al225       O234   1.783   1_556  S
C226        O239   1.261       .  A
C226       C1450   1.453       .  S
O227        C237   1.260       .  A
O227       Al229   1.871       .  S
O228        C241   1.259   1_556  A
O228       Al238   1.919   1_556  S
Al229       O242   1.883       .  S
Al229       O239   1.909       .  S
Al229       O234   1.783       .  S
O230        C237   1.273       .  A
O230       Al238   1.956       .  S
O231        C240   1.272       .  A
O231       Al238   1.947   1_556  S
O232       Al238   1.925       .  S
O233        C240   1.260       .  A
O234       Al238   1.779       .  S
O235        C236   1.263       .  A
C236       C1504   1.465       .  S
C237       C1414   1.477       .  S
C240       C1468   1.461       .  S
C241        O242   1.251       .  A
C241       C1486   1.464   1_554  S
O243        C258   1.259       .  A
O243       Al251   1.874       .  S
C244        O254   1.262       .  A
C244        O245   1.258       .  A
C244       C1360   1.479       .  S
O245       Al247   1.902       .  S
O246        C248   1.253       .  A
O246       Al247   1.891       .  S
Al247       O255   1.868       .  S
Al247       O257   1.953       .  S
Al247       O256   1.780       .  S
C248        O261   1.259       .  A
C248       C1666   1.460       .  S
O249        C259   1.261       .  A
O249       Al251   1.860       .  S
O250        C263   1.261       .  A
O250       Al260   1.940       .  S
Al251       O264   1.898       .  S
Al251       O261   1.922       .  S
Al251       O256   1.787       .  S
O252        C259   1.277       .  A
O252       Al260   1.965       .  S
O253        C262   1.268       .  A
O253       Al260   1.938       .  S
O254       Al260   1.924       .  S
O255        C262   1.256       .  A
O256       Al260   1.778       .  S
O257        C258   1.272       .  A
C258       C1396   1.464       .  S
C259       C1342   1.469       .  S
C262       C1471   1.469       .  S
C263        O264   1.252       .  A
C263       C1378   1.477       .  S
O265        C280   1.259       .  A
O265       Al273   1.891   1_554  S
C266        O276   1.266       .  A
C266        O267   1.261       .  A
C266       C1273   1.483       .  S
O267       Al269   1.924       .  S
O268        C270   1.262   1_554  A
O268       Al269   1.902       .  S
Al269       O277   1.875       .  S
Al269       O279   1.918       .  S
Al269       O278   1.778       .  S
C270        O283   1.266       .  A
C270       C1288   1.464       .  S
O271        C281   1.262       .  A
O271       Al273   1.892       .  S
O272        C285   1.264   1_554  A
O272       Al282   1.922       .  S
Al273       O286   1.917       .  S
Al273       O283   1.928       .  S
Al273       O278   1.769   1_556  S
O274        C281   1.272       .  A
O274       Al282   1.962   1_556  S
O275        C284   1.273       .  A
O275       Al282   1.970       .  S
O276       Al282   1.932       .  S
O277        C284   1.257       .  A
O278       Al282   1.770       .  S
O279        C280   1.263       .  A
C280       C1453   1.457       .  S
C281       C1252   1.479       .  S
C284       C1309   1.477       .  S
C285        O286   1.262       .  A
C285       C1327   1.476       .  S
O287        C302   1.263       .  A
O287       Al295   1.912       .  S
C288        O298   1.265       .  A
C288        O289   1.259       .  A
C288       C1219   1.481       .  S
O289       Al291   1.906       .  S
O290        C292   1.264       .  A
O290       Al291   1.910       .  S
Al291       O299   1.881       .  S
Al291       O301   1.904       .  S
Al291       O300   1.776       .  S
C292        O305   1.265       .  A
C292       C1234   1.470       .  S
O293        C303   1.263       .  A
O293       Al295   1.899       .  S
O294        C307   1.262       .  A
O294       Al304   1.915       .  S
Al295       O308   1.922       .  S
Al295       O305   1.931       .  S
Al295       O300   1.777       .  S
O296        C303   1.272       .  A
O296       Al304   1.957       .  S
O297        C306   1.272       .  A
O297       Al304   1.967       .  S
O298       Al304   1.931       .  S
O299        C306   1.258       .  A
O300       Al304   1.780       .  S
O301        C302   1.260       .  A
C302       C1198   1.463       .  S
C303       C1162   1.482       .  S
C306       C1306   1.480       .  S
C307        O308   1.261       .  A
C307       C1183   1.479       .  S
O309        C324   1.264       .  A
O309       Al317   1.890       .  S
C310        O320   1.261       .  A
C310        O311   1.256       .  A
C310       C1144   1.477       .  S
O311       Al313   1.897       .  S
O312        C314   1.252       .  A
O312       Al313   1.892       .  S
Al313       O321   1.875       .  S
Al313       O323   1.942       .  S
Al313       O322   1.784       .  S
C314        O327   1.256       .  A
C314       C1201   1.462       .  S
O315        C325   1.264       .  A
O315       Al317   1.867       .  S
O316        C329   1.264       .  A
O316       Al326   1.952       .  S
Al317       O330   1.898       .  S
Al317       O327   1.921       .  S
Al317       O322   1.793       .  S
O318        C325   1.279       .  A
O318       Al326   1.970       .  S
O319        C328   1.271       .  A
O319       Al326   1.950       .  S
O320       Al326   1.923       .  S
O321        C328   1.257       .  A
O322       Al326   1.784       .  S
O323        C324   1.271       .  A
C324       C1108   1.467       .  S
C325       C1072   1.474       .  S
C328       C1129   1.481       .  S
C329        O330   1.251       .  A
C329       C1090   1.487       .  S
O331        C346   1.261       .  A
O331       Al339   1.897       .  S
C332        O342   1.260       .  A
C332        O333   1.257       .  A
C332       C1054   1.476       .  S
O333       Al335   1.912       .  S
O334        C336   1.259       .  A
O334       Al335   1.892       .  S
Al335       O343   1.872       .  S
Al335       O345   1.940       .  S
Al335       O344   1.779       .  S
C336        O349   1.262       .  A
C336       C1561   1.459       .  S
O337        C347   1.258       .  A
O337       Al339   1.860       .  S
O338        C351   1.260       .  A
O338       Al348   1.919       .  S
Al339       O352   1.903       .  S
Al339       O349   1.922       .  S
Al339       O344   1.783       .  S
O340        C347   1.273       .  A
O340       Al348   1.953       .  S
O341        C350   1.272       .  A
O341       Al348   1.951       .  S
O342       Al348   1.922       .  S
O343        C350   1.259       .  A
O344       Al348   1.779       .  S
O345        C346   1.267       .  A
C346       C1036   1.470       .  S
C347       C1000   1.469       .  S
C350       C1126   1.466       .  S
C351        O352   1.255       .  A
C351       C1018   1.469   1_655  S
O353        C368   1.259       .  A
O353       Al361   1.890       .  S
C354        O364   1.262       .  A
C354        O355   1.265       .  A
C354       C1738   1.479       .  S
O355       Al357   1.934       .  S
O356        C358   1.258       .  A
O356       Al357   1.890       .  S
Al357       O365   1.871       .  S
Al357       O367   1.955       .  S
Al357       O366   1.769       .  S
C358        O371   1.263       .  A
C358        C964   1.459       .  S
O359        C369   1.257       .  A
O359       Al361   1.859       .  S
O360        C373   1.263       .  A
O360       Al370   1.926       .  S
Al361       O374   1.908       .  S
Al361       O371   1.927       .  S
Al361       O366   1.776       .  S
O362        C369   1.274       .  A
O362       Al370   1.966       .  S
O363        C372   1.269       .  A
O363       Al370   1.950       .  S
O364       Al370   1.917       .  S
O365        C372   1.258       .  A
O366       Al370   1.775       .  S
O367        C368   1.271       .  A
C368       C1039   1.474   1_545  S
C369       C2242   1.473       .  S
C372        C982   1.461       .  S
C373        O374   1.258       .  A
C373       C1543   1.469       .  S
O375        C390   1.264       .  A
O375       Al383   1.889       .  S
C376        O386   1.262       .  A
C376        O377   1.256       .  A
C376       C2101   1.476       .  S
O377       Al379   1.897       .  S
O378        C380   1.252       .  A
O378       Al379   1.890       .  S
Al379       O387   1.856       .  S
Al379       O389   1.938       .  S
Al379       O388   1.772       .  S
C380        O393   1.255       .  A
C380        C949   1.453       .  S
O381        C391   1.263       .  A
O381       Al383   1.860       .  S
O382        C395   1.261       .  A
O382       Al392   1.939       .  S
Al383       O396   1.893       .  S
Al383       O393   1.914       .  S
Al383       O388   1.791       .  S
O384        C391   1.277       .  A
O384       Al392   1.959       .  S
O385        C394   1.267       .  A
O385       Al392   1.940       .  S
O386       Al392   1.922       .  S
O387        C394   1.255       .  A
O388       Al392   1.781       .  S
O389        C390   1.271       .  A
C390       C1111   1.465   1_545  S
C391       C2335   1.463       .  S
C394        C985   1.469       .  S
C395        O396   1.250       .  A
C395       C1180   1.474       .  S
O397        C412   1.262       .  A
O397       Al405   1.903       .  S
C398        O408   1.263       .  A
C398        O399   1.259       .  A
C398       C2296   1.478       .  S
O399       Al401   1.906       .  S
O400        C402   1.262       .  A
O400       Al401   1.904   1_545  S
Al401       O409   1.869       .  S
Al401       O411   1.911       .  S
Al401       O410   1.774       .  S
C402        O415   1.265   1_545  A
C402       C1846   1.464       .  S
O403        C413   1.261       .  A
O403       Al405   1.887       .  S
O404        C417   1.263       .  A
O404       Al414   1.926       .  S
Al405       O418   1.918       .  S
Al405       O415   1.930       .  S
Al405       O410   1.774       .  S
O406        C413   1.273       .  A
O406       Al414   1.958       .  S
O407        C416   1.273       .  A
O407       Al414   1.967       .  S
O408       Al414   1.925       .  S
O409        C416   1.257       .  A
O410       Al414   1.777       .  S
O411        C412   1.262       .  A
C412        C910   1.460       .  S
C413       C1255   1.477       .  S
C416        C931   1.474       .  S
C417        O418   1.261       .  A
C417       C1381   1.484       .  S
O419        C434   1.261       .  A
O419       Al427   1.897       .  S
C420        O430   1.264       .  A
C420        O421   1.261       .  A
C420       C1903   1.477       .  S
O421       Al423   1.922       .  S
O422        C424   1.264       .  A
O422       Al423   1.916   1_545  S
Al423       O431   1.879       .  S
Al423       O433   1.925       .  S
Al423       O432   1.781       .  S
C424        O437   1.264       .  A
C424       C1756   1.470       .  S
O425        C435   1.262       .  A
O425       Al427   1.894       .  S
O426        C439   1.262       .  A
O426       Al436   1.915       .  S
Al427       O440   1.919       .  S
Al427       O437   1.921   1_565  S
Al427       O432   1.769       .  S
O428        C435   1.271       .  A
O428       Al436   1.956       .  S
O429        C438   1.270       .  A
O429       Al436   1.956       .  S
O430       Al436   1.918       .  S
O431        C438   1.258       .  A
O432       Al436   1.777       .  S
O433        C434   1.263       .  A
C434        C967   1.462       .  S
C435       C1165   1.479       .  S
C438        C928   1.472       .  S
C439        O440   1.262       .  A
C439       C1021   1.475       .  S
O441        C456   1.261       .  A
O441       Al449   1.899   1_554  S
C442        O452   1.265       .  A
C442        O443   1.263       .  A
C442       C2386   1.481       .  S
O443       Al445   1.928       .  S
O444        C446   1.260   1_554  A
O444       Al445   1.901   1_545  S
Al445       O453   1.872       .  S
Al445       O455   1.935       .  S
Al445       O454   1.774       .  S
C446        O459   1.263       .  A
C446       C2206   1.464       .  S
O447        C457   1.262       .  A
O447       Al449   1.895       .  S
O448        C461   1.264   1_554  A
O448       Al458   1.923       .  S
Al449       O462   1.914       .  S
Al449       O459   1.922   1_565  S
Al449       O454   1.773   1_556  S
O450        C457   1.271       .  A
O450       Al458   1.954   1_556  S
O451        C460   1.270       .  A
O451       Al458   1.958       .  S
O452       Al458   1.924       .  S
O453        C460   1.255       .  A
O454       Al458   1.776       .  S
O455        C456   1.267       .  A
C456        C874   1.467       .  S
C457       C1615   1.475       .  S
C460        C892   1.470       .  S
C461        O462   1.261       .  A
C461       C1489   1.477       .  S
O463        C478   1.262       .  A
O463       Al471   1.902       .  S
C464        O474   1.267       .  A
C464        O465   1.258       .  A
C464       C2026   1.483       .  S
O465       Al467   1.896       .  S
O466        C468   1.261       .  A
O466       Al467   1.902   1_545  S
Al467       O475   1.868       .  S
Al467       O477   1.901       .  S
Al467       O476   1.772       .  S
C468        O481   1.268   1_545  A
C468       C2116   1.475       .  S
O469        C479   1.262       .  A
O469       Al471   1.890       .  S
O470        C483   1.266       .  A
O470       Al480   1.939       .  S
Al471       O484   1.927       .  S
Al471       O481   1.952       .  S
Al471       O476   1.773       .  S
O472        C479   1.273       .  A
O472       Al480   1.958       .  S
O473        C482   1.272       .  A
O473       Al480   1.967       .  S
O474       Al480   1.945       .  S
O475        C482   1.255       .  A
O476       Al480   1.782       .  S
O477        C478   1.260       .  A
C478        C946   1.457       .  S
C479       C1522   1.476       .  S
C482        C895   1.472       .  S
C483        O484   1.265       .  A
C483       C1093   1.493       .  S
O485        C500   1.258       .  A
O485       Al493   1.888   1_556  S
C486        O496   1.260       .  A
C486        O487   1.262   1_554  A
C486       C2191   1.477       .  S
O487       Al489   1.934       .  S
O488        C490   1.260       .  A
O488       Al489   1.888   1_554  S
Al489       O497   1.866       .  S
Al489       O499   1.942       .  S
Al489       O498   1.772   1_556  S
C490        O503   1.265       .  A
C490        C877   1.458       .  S
O491        C501   1.257       .  A
O491       Al493   1.865       .  S
O492        C505   1.261   1_556  A
O492       Al502   1.919   1_556  S
Al493       O506   1.901       .  S
Al493       O503   1.930       .  S
Al493       O498   1.777       .  S
O494        C501   1.273       .  A
O494       Al502   1.958       .  S
O495        C504   1.275       .  A
O495       Al502   1.973   1_556  S
O496       Al502   1.916       .  S
O497        C504   1.257       .  A
O498       Al502   1.772       .  S
O499        C500   1.266       .  A
C500       C1507   1.467   1_545  S
C501       C1975   1.472       .  S
C504        C859   1.471       .  S
C505        O506   1.257       .  A
C505       C1324   1.466   1_554  S
O507        C522   1.264       .  A
O507       Al515   1.888       .  S
C508        O518   1.262       .  A
C508        O509   1.256       .  A
C508       C1831   1.480       .  S
O509       Al511   1.895       .  S
O510        C512   1.254       .  A
O510       Al511   1.891       .  S
Al511       O519   1.874       .  S
Al511       O521   1.938       .  S
Al511       O520   1.776       .  S
C512        O525   1.255       .  A
C512        C913   1.455       .  S
O513        C523   1.262       .  A
O513       Al515   1.859       .  S
O514        C527   1.259       .  A
O514       Al524   1.935       .  S
Al515       O528   1.891       .  S
Al515       O525   1.914       .  S
Al515       O520   1.794       .  S
O516        C523   1.280       .  A
O516       Al524   1.976       .  S
O517        C526   1.271       .  A
O517       Al524   1.955       .  S
O518       Al524   1.927       .  S
O519        C526   1.258       .  A
O520       Al524   1.784       .  S
O521        C522   1.269       .  A
C522       C1399   1.465   1_545  S
C523       C1885   1.474       .  S
C526        C856   1.483       .  S
C527        O528   1.250       .  A
C527       C1705   1.474       .  S
O529        C544   1.262       .  A
O529       Al537   1.895   1_554  S
C530        O540   1.263       .  A
C530        O531   1.260       .  A
C530       C1432   1.472       .  S
O531       Al533   1.908       .  S
O532        C534   1.260   1_554  A
O532       Al533   1.901       .  S
Al533       O541   1.861       .  S
Al533       O543   1.917       .  S
Al533       O542   1.775       .  S
C534        O547   1.263       .  A
C534       C1291   1.466       .  S
O535        C545   1.263       .  A
O535       Al537   1.891       .  S
O536        C549   1.264   1_554  A
O536       Al546   1.926       .  S
Al537       O550   1.926       .  S
Al537       O547   1.930       .  S
Al537       O542   1.773   1_556  S
O538        C545   1.274       .  A
O538       Al546   1.960   1_556  S
O539        C548   1.271       .  A
O539       Al546   1.967       .  S
O540       Al546   1.919       .  S
O541        C548   1.254       .  A
O542       Al546   1.773       .  S
O543        C544   1.265       .  A
C544        C820   1.457       .  S
C545       C1795   1.477       .  S
C548        C838   1.471       .  S
C549        O550   1.261       .  A
C549       C2407   1.483       .  S
O551        C566   1.260       .  A
O551       Al559   1.896       .  S
C552        O562   1.265       .  A
C552        O553   1.262       .  A
C552       C1147   1.483       .  S
O553       Al555   1.914       .  S
O554        C556   1.261       .  A
O554       Al555   1.907       .  S
Al555       O563   1.869       .  S
Al555       O565   1.923       .  S
Al555       O564   1.774       .  S
C556        O569   1.266       .  A
C556       C1237   1.469       .  S
O557        C567   1.260       .  A
O557       Al559   1.889       .  S
O558        C571   1.265       .  A
O558       Al568   1.921       .  S
Al559       O572   1.929       .  S
Al559       O569   1.933       .  S
Al559       O564   1.770       .  S
O560        C567   1.270       .  A
O560       Al568   1.954       .  S
O561        C570   1.271       .  A
O561       Al568   1.964       .  S
O562       Al568   1.933       .  S
O563        C570   1.255       .  A
O564       Al568   1.780       .  S
O565        C566   1.264       .  A
C566        C802   1.465       .  S
C567       C1723   1.474       .  S
C570        C841   1.471       .  S
C571        O572   1.264       .  A
C571       C1990   1.484       .  S
O573        C588   1.260       .  A
O573       Al581   1.894   1_556  S
C574        O584   1.262       .  A
C574        O575   1.262   1_554  A
C574       C1270   1.479       .  S
O575       Al577   1.928       .  S
O576        C578   1.260       .  A
O576       Al577   1.888   1_554  S
Al577       O585   1.870       .  S
Al577       O587   1.935       .  S
Al577       O586   1.772   1_556  S
C578        O591   1.264       .  A
C578        C823   1.457       .  S
O579        C589   1.259       .  A
O579       Al581   1.872       .  S
O580        C593   1.261   1_556  A
O580       Al590   1.918   1_556  S
Al581       O594   1.911       .  S
Al581       O591   1.928       .  S
Al581       O586   1.777       .  S
O582        C589   1.274       .  A
O582       Al590   1.963       .  S
O583        C592   1.272       .  A
O583       Al590   1.963   1_556  S
O584       Al590   1.922       .  S
O585        C592   1.257       .  A
O586       Al590   1.773       .  S
O587        C588   1.266       .  A
C588       C2425   1.465       .  S
C589       C1075   1.478       .  S
C592        C784   1.468       .  S
C593        O594   1.259       .  A
C593       C2224   1.468       .  S
O595        C610   1.263       .  A
O595       Al603   1.887       .  S
C596        O606   1.261       .  A
C596        O597   1.256       .  A
C596       C1633   1.472       .  S
O597       Al599   1.896       .  S
O598        C600   1.256       .  A
O598       Al599   1.897       .  S
Al599       O607   1.874       .  S
Al599       O609   1.929       .  S
Al599       O608   1.774       .  S
C600        O613   1.257       .  A
C600        C766   1.463       .  S
O601        C611   1.261       .  A
O601       Al603   1.856       .  S
O602        C615   1.261       .  A
O602       Al612   1.933       .  S
Al603       O616   1.896       .  S
Al603       O613   1.922       .  S
Al603       O608   1.790       .  S
O604        C611   1.278       .  A
O604       Al612   1.969       .  S
O605        C614   1.271       .  A
O605       Al612   1.958       .  S
O606       Al612   1.916       .  S
O607        C614   1.258       .  A
O608       Al612   1.784       .  S
O609        C610   1.268       .  A
C610       C2281   1.460       .  S
C611       C1003   1.468       .  S
C614        C787   1.484       .  S
C615        O616   1.251       .  A
C615       C1810   1.471       .  S
O617        C632   1.263       .  A
O617       Al625   1.916       .  S
C618        O628   1.267       .  A
C618        O619   1.259       .  A
C618       C1363   1.492       .  S
O619       Al621   1.905       .  S
O620        C622   1.260       .  A
O620       Al621   1.899       .  S
Al621       O629   1.870       .  S
Al621       O631   1.907       .  S
Al621       O630   1.772       .  S
C622        O635   1.268       .  A
C622       C1651   1.469       .  S
O623        C633   1.264       .  A
O623       Al625   1.892       .  S
O624        C637   1.265       .  A
O624       Al634   1.933       .  S
Al625       O638   1.919       .  S
Al625       O635   1.947       .  S
Al625       O630   1.778       .  S
O626        C633   1.273       .  A
O626       Al634   1.955       .  S
O627        C636   1.273       .  A
O627       Al634   1.965       .  S
O628       Al634   1.949       .  S
O629        C636   1.256       .  A
O630       Al634   1.777       .  S
O631        C632   1.261       .  A
C632        C769   1.465       .  S
C633       C2155   1.476       .  S
C636        C748   1.473       .  S
C637        O638   1.261       .  A
C637       C2260   1.487       .  S
O639        C654   1.264       .  A
O639       Al647   1.915       .  S
C640        O650   1.263       .  A
C640        O641   1.262       .  A
C640       C1057   1.483       .  S
O641       Al643   1.920       .  S
O642        C644   1.260       .  A
O642       Al643   1.893       .  S
Al643       O651   1.874       .  S
Al643       O653   1.915       .  S
Al643       O652   1.770       .  S
C644        O657   1.264       .  A
C644       C1597   1.462       .  S
O645        C655   1.262       .  A
O645       Al647   1.895       .  S
O646        C659   1.263       .  A
O646       Al656   1.917       .  S
Al647       O660   1.925       .  S
Al647       O657   1.932       .  S
Al647       O652   1.777       .  S
O648        C655   1.271       .  A
O648       Al656   1.952       .  S
O649        C658   1.271       .  A
O649       Al656   1.962       .  S
O650       Al656   1.928       .  S
O651        C658   1.256       .  A
O652       Al656   1.774       .  S
O653        C654   1.264       .  A
C654        C733   1.466       .  S
C655       C2065   1.475       .  S
C658        C751   1.472       .  S
C659        O660   1.262       .  A
C659       C1921   1.477       .  S
O661        C676   1.258       .  A
O661       Al669   1.902       .  S
C662        O672   1.262       .  A
C662        O663   1.258       .  A
C662       C1579   1.479       .  S
O663       Al665   1.915       .  S
O664        C666   1.262       .  A
O664       Al665   1.887       .  S
Al665       O673   1.869       .  S
Al665       O675   1.928       .  S
Al665       O674   1.775       .  S
C666        O679   1.267       .  A
C666        C730   1.457       .  S
O667        C677   1.257       .  A
O667       Al669   1.870       .  S
O668        C681   1.261       .  A
O668       Al678   1.915       .  S
Al669       O682   1.896       .  S
Al669       O679   1.927       .  S
Al669       O674   1.779       .  S
O670        C677   1.272       .  A
O670       Al678   1.958       .  S
O671        C680   1.277       .  A
O671       Al678   1.977       .  S
O672       Al678   1.932       .  S
O673        C680   1.260       .  A
O674       Al678   1.778       .  S
O675        C676   1.261       .  A
C676       C1939   1.468       .  S
C677       C1345   1.480       .  S
C680        C712   1.470       .  S
C681        O682   1.257       .  A
C681       C1774   1.465       .  S
O683        C698   1.263       .  A
O683       Al691   1.892       .  S
C684        O694   1.260       .  A
C684        O685   1.255       .  A
C684       C1216   1.476       .  S
O685       Al687   1.897       .  S
O686        C688   1.253       .  A
O686       Al687   1.885       .  S
Al687       O695   1.850       .  S
Al687       O697   1.939       .  S
Al687       O696   1.774       .  S
C688        O701   1.260       .  A
C688        C805   1.460       .  S
O689        C699   1.263       .  A
O689       Al691   1.864       .  S
O690        C703   1.259       .  A
O690       Al700   1.932       .  S
Al691       O704   1.896       .  S
Al691       O701   1.934       .  S
Al691       O696   1.792       .  S
O692        C699   1.280       .  A
O692       Al700   1.973       .  S
O693        C702   1.273       .  A
O693       Al700   1.970       .  S
O694       Al700   1.922       .  S
O695        C702   1.256       .  A
O696       Al700   1.783       .  S
O697        C698   1.269       .  A
C698       C2011   1.466       .  S
C699       C1417   1.475       .  S
C702        C715   1.481       .  S
C703        O704   1.252       .  A
C703       C2080   1.474       .  S
C705        C710   1.384       .  A
C705        C706   1.397       .  A
C705        N711   1.341       .  A
C706        C707   1.397       .  A
C706        H717   1.083       .  S
C707        C716   1.366       .  A
C707        C708   1.383       .  A
C708        C709   1.413       .  A
C708        N714   1.356       .  A
C709        C710   1.415       .  A
C709        H718   1.082       .  S
C710        C713   1.389       .  A
N711        C712   1.353       .  A
N711        H721   1.045       .  S
C712        C713   1.402       .  A
C713        H719   1.082       .  S
N714        C715   1.361       .  A
N714        H722   1.044       .  S
C715        C716   1.394       .  A
C716        H720   1.083       .  S
C723        C728   1.387       .  A
C723        C724   1.399       .  A
C723        N729   1.340       .  A
C724        C725   1.398       .  A
C724        H735   1.083       .  S
C725        C734   1.370       .  A
C725        C726   1.385       .  A
C726        C727   1.402       .  A
C726        N732   1.346       .  A
C727        C728   1.403       .  A
C727        H736   1.082       .  S
C728        C731   1.375       .  A
N729        C730   1.353       .  A
N729        H739   1.045       .  S
C730        C731   1.392       .  A
C731        H737   1.083       .  S
N732        C733   1.355       .  A
N732        H740   1.045       .  S
C733        C734   1.391       .  A
C734        H738   1.083       .  S
C741        C746   1.384       .  A
C741        C742   1.407       .  A
C741        N747   1.343       .  A
C742        C743   1.404       .  A
C742        H753   1.082       .  S
C743        C752   1.385       .  A
C743        C744   1.384       .  A
C744        C745   1.408       .  A
C744        N750   1.344       .  A
C745        C746   1.405       .  A
C745        H754   1.082       .  S
C746        C749   1.387       .  A
N747        C748   1.357       .  A
N747        H757   1.045       .  S
C748        C749   1.396       .  A
C749        H755   1.082       .  S
N750        C751   1.357       .  A
N750        H758   1.045       .  S
C751        C752   1.395       .  A
C752        H756   1.082       .  S
C759        C764   1.388       .  A
C759        C760   1.407       .  A
C759        N765   1.343       .  A
C760        C761   1.402       .  A
C760        H771   1.083       .  S
C761        C770   1.384       .  A
C761        C762   1.385       .  A
C762        C763   1.397       .  A
C762        N768   1.337       .  A
C763        C764   1.397       .  A
C763        H772   1.083       .  S
C764        C767   1.375       .  A
N765        C766   1.355       .  A
N765        H775   1.045       .  S
C766        C767   1.391       .  A
C767        H773   1.083       .  S
N768        C769   1.352       .  A
N768        H776   1.045       .  S
C769        C770   1.395       .  A
C770        H774   1.082       .  S
C777        C782   1.383       .  A
C777        C778   1.412       .  A
C777        N783   1.348       .  A
C778        C779   1.410       .  A
C778        H789   1.082       .  S
C779        C788   1.392       .  A
C779        C780   1.383       .  A
C780        C781   1.403       .  A
C780        N786   1.340       .  A
C781        C782   1.400       .  A
C781        H790   1.083       .  S
C782        C785   1.378       .  A
N783        C784   1.359       .  A
N783        H793   1.045       .  S
C784        C785   1.394       .  A
C785        H791   1.083       .  S
N786        C787   1.357       .  A
N786        H794   1.045       .  S
C787        C788   1.401       .  A
C788        H792   1.082       .  S
C795        C800   1.384       .  A
C795        C796   1.400       .  A
C795        N801   1.341       .  A
C796        C797   1.400       .  A
C796        H807   1.083       .  S
C797        C806   1.374       .  A
C797        C798   1.385       .  A
C798        C799   1.404       .  A
C798        N804   1.342       .  A
C799        C800   1.402       .  A
C799        H808   1.083       .  S
C800        C803   1.378       .  A
N801        C802   1.354       .  A
N801        H811   1.045       .  S
C802        C803   1.394       .  A
C803        H809   1.082       .  S
N804        C805   1.355       .  A
N804        H812   1.045       .  S
C805        C806   1.393       .  A
C806        H810   1.083       .  S
C813        C818   1.386       .  A
C813        C814   1.398       .  A
C813        N819   1.338       .  A
C814        C815   1.397   1_455  A
C814        H825   1.083       .  S
C815        C824   1.373       .  A
C815        C816   1.386       .  A
C816        C817   1.402       .  A
C816        N822   1.341       .  A
C817        C818   1.400   1_655  A
C817        H826   1.083       .  S
C818        C821   1.377       .  A
N819        C820   1.351       .  A
N819        H829   1.045       .  S
C820        C821   1.392       .  A
C821        H827   1.083       .  S
N822        C823   1.354       .  A
N822        H830   1.045       .  S
C823        C824   1.390       .  A
C824        H828   1.083       .  S
C831        C836   1.384       .  A
C831        C832   1.406       .  A
C831        N837   1.351       .  A
C832        C833   1.408       .  A
C832        H843   1.082       .  S
C833        C842   1.377       .  A
C833        C834   1.385       .  A
C834        C835   1.403       .  A
C834        N840   1.349       .  A
C835        C836   1.405       .  A
C835        H844   1.082       .  S
C836        C839   1.374       .  A
N837        C838   1.358       .  A
N837        H847   1.045       .  S
C838        C839   1.395       .  A
C839        H845   1.083       .  S
N840        C841   1.355       .  A
N840        H848   1.045       .  S
C841        C842   1.397       .  A
C842        H846   1.083       .  S
C849        C854   1.383       .  A
C849        C850   1.403       .  A
C849        N855   1.341       .  A
C850        C851   1.402       .  A
C850        H861   1.083       .  S
C851        C860   1.377       .  A
C851        C852   1.382       .  A
C852        C853   1.412       .  A
C852        N858   1.349       .  A
C853        C854   1.410       .  A
C853        H862   1.082       .  S
C854        C857   1.391       .  A
N855        C856   1.357       .  A
N855        H865   1.045       .  S
C856        C857   1.400       .  A
C857        H863   1.082       .  S
N858        C859   1.359       .  A
N858        H866   1.045       .  S
C859        C860   1.395       .  A
C860        H864   1.083       .  S
C867        C872   1.385   1_565  A
C867        C868   1.403       .  A
C867        N873   1.344       .  A
C868        C869   1.403   1_565  A
C868        H879   1.083       .  S
C869        C878   1.377       .  A
C869        C870   1.386       .  A
C870        C871   1.400       .  A
C870        N876   1.341       .  A
C871        C872   1.399       .  A
C871        H880   1.083       .  S
C872        C875   1.375       .  A
N873        C874   1.356       .  A
N873        H883   1.045       .  S
C874        C875   1.392   1_565  A
C875        H881   1.083       .  S
N876        C877   1.353       .  A
N876        H884   1.045       .  S
C877        C878   1.393       .  A
C878        H882   1.083   1_545  S
C885        C890   1.384       .  A
C885        C886   1.407       .  A
C885        N891   1.343       .  A
C886        C887   1.405       .  A
C886        H897   1.082       .  S
C887        C896   1.387       .  A
C887        C888   1.384       .  A
C888        C889   1.407       .  A
C888        N894   1.342       .  A
C889        C890   1.404       .  A
C889        H898   1.082       .  S
C890        C893   1.386       .  A
N891        C892   1.356       .  A
N891        H901   1.045       .  S
C892        C893   1.396       .  A
C893        H899   1.082       .  S
N894        C895   1.357       .  A
N894        H902   1.045       .  S
C895        C896   1.396       .  A
C896        H900   1.082       .  S
C903        C908   1.385   1_565  A
C903        C904   1.401       .  A
C903        N909   1.344       .  A
C904        C905   1.403       .  A
C904        H915   1.083       .  S
C905        C914   1.373       .  A
C905        C906   1.388   1_565  A
C906        C907   1.398       .  A
C906        N912   1.340       .  A
C907        C908   1.396       .  A
C907        H916   1.083       .  S
C908        C911   1.369       .  A
N909        C910   1.354       .  A
N909        H919   1.045       .  S
C910        C911   1.391   1_565  A
C911        H917   1.083       .  S
N912        C913   1.352       .  A
N912        H920   1.045       .  S
C913        C914   1.393   1_545  A
C914        H918   1.084       .  S
C921        C926   1.385       .  A
C921        C922   1.404       .  A
C921        N927   1.349       .  A
C922        C923   1.405       .  A
C922        H933   1.082       .  S
C923        C932   1.375       .  A
C923        C924   1.385       .  A
C924        C925   1.406       .  A
C924        N930   1.351       .  A
C925        C926   1.408       .  A
C925        H934   1.082       .  S
C926        C929   1.378       .  A
N927        C928   1.355       .  A
N927        H937   1.045       .  S
C928        C929   1.396       .  A
C929        H935   1.083       .  S
N930        C931   1.357       .  A
N930        H938   1.045       .  S
C931        C932   1.395       .  A
C932        H936   1.083       .  S
C939        C944   1.385   1_565  A
C939        C940   1.398       .  A
C939        N945   1.343       .  A
C940        C941   1.401       .  A
C940        H951   1.083       .  S
C941        C950   1.371       .  A
C941        C942   1.388   1_565  A
C942        C943   1.398       .  A
C942        N948   1.340       .  A
C943        C944   1.396       .  A
C943        H952   1.083       .  S
C944        C947   1.368       .  A
N945        C946   1.352       .  A
N945        H955   1.045       .  S
C946        C947   1.391   1_565  A
C947        H953   1.083       .  S
N948        C949   1.352       .  A
N948        H956   1.045       .  S
C949        C950   1.391   1_545  A
C950        H954   1.083       .  S
C957        C962   1.386       .  A
C957        C958   1.402   1_655  A
C957        N963   1.341       .  A
C958        C959   1.401       .  A
C958        H969   1.083       .  S
C959        C968   1.377       .  A
C959        C960   1.386   1_545  A
C960        C961   1.401       .  A
C960        N966   1.341       .  A
C961        C962   1.400   1_465  A
C961        H970   1.083   1_455  S
C962        C965   1.376       .  A
N963        C964   1.353       .  A
N963        H973   1.045       .  S
C964        C965   1.391       .  A
C965        H971   1.083   1_545  S
N966        C967   1.353       .  A
N966        H974   1.045       .  S
C967        C968   1.393   1_565  A
C968        H972   1.083       .  S
C975        C980   1.384       .  A
C975        C976   1.410       .  A
C975        N981   1.345       .  A
C976        C977   1.406       .  A
C976        H987   1.082       .  S
C977        C986   1.387       .  A
C977        C978   1.384       .  A
C978        C979   1.398       .  A
C978        N984   1.335       .  A
C979        C980   1.396       .  A
C979        H988   1.083       .  S
C980        C983   1.374       .  A
N981        C982   1.358       .  A
N981        H991   1.045       .  S
C982        C983   1.390       .  A
C983        H989   1.083       .  S
N984        C985   1.354       .  A
N984        H992   1.045       .  S
C985        C986   1.397       .  A
C986        H990   1.082       .  S
C993        C998   1.385       .  A
C993        C994   1.399       .  A
C993        N999   1.347       .  A
C994        C995   1.402       .  A
C994       H1005   1.082       .  S
C995       C1004   1.369       .  A
C995        C996   1.386       .  A
C996        C997   1.403       .  A
C996       N1002   1.349       .  A
C997        C998   1.405       .  A
C997       H1006   1.082       .  S
C998       C1001   1.372       .  A
N999       C1000   1.354       .  A
N999       H1009   1.045       .  S
C1000      C1001   1.396       .  A
C1001      H1007   1.083       .  S
N1002      C1003   1.355       .  A
N1002      H1010   1.045       .  S
C1003      C1004   1.394       .  A
C1004      H1008   1.083       .  S
C1011      C1016   1.385       .  A
C1011      C1012   1.405       .  A
C1011      N1017   1.345       .  A
C1012      C1013   1.404       .  A
C1012      H1023   1.083       .  S
C1013      C1022   1.379       .  A
C1013      C1014   1.384       .  A
C1014      C1015   1.405       .  A
C1014      N1020   1.347       .  A
C1015      C1016   1.406       .  A
C1015      H1024   1.082       .  S
C1016      C1019   1.380       .  A
N1017      C1018   1.354       .  A
N1017      H1027   1.052   1_455  S
C1018      C1019   1.397       .  A
C1019      H1025   1.083       .  S
N1020      C1021   1.356       .  A
N1020      H1028   1.037       .  S
C1021      C1022   1.396       .  A
C1022      H1026   1.083       .  S
C1029      C1034   1.385       .  A
C1029      C1030   1.403       .  A
C1029      N1035   1.344       .  A
C1030      C1031   1.402       .  A
C1030      H1041   1.082       .  S
C1031      C1040   1.379       .  A
C1031      C1032   1.384       .  A
C1032      C1033   1.406       .  A
C1032      N1038   1.346       .  A
C1033      C1034   1.405       .  A
C1033      H1042   1.083       .  S
C1034      C1037   1.380       .  A
N1035      C1036   1.354       .  A
N1035      H1045   1.047       .  S
C1036      C1037   1.395       .  A
C1037      H1043   1.083       .  S
N1038      C1039   1.358       .  A
N1038      H1046   1.043       .  S
C1039      C1040   1.393       .  A
C1040      H1044   1.082       .  S
C1047      C1052   1.384       .  A
C1047      C1048   1.405       .  A
C1047      N1053   1.348       .  A
C1048      C1049   1.406       .  A
C1048      H1059   1.082       .  S
C1049      C1058   1.379       .  A
C1049      C1050   1.384       .  A
C1050      C1051   1.409       .  A
C1050      N1056   1.351       .  A
C1051      C1052   1.410       .  A
C1051      H1060   1.082       .  S
C1052      C1055   1.384       .  A
N1053      C1054   1.356       .  A
N1053      H1063   1.045       .  S
C1054      C1055   1.398       .  A
C1055      H1061   1.082       .  S
N1056      C1057   1.359       .  A
N1056      H1064   1.045       .  S
C1057      C1058   1.397       .  A
C1058      H1062   1.082       .  S
C1065      C1070   1.385       .  A
C1065      C1066   1.405       .  A
C1065      N1071   1.350       .  A
C1066      C1067   1.406       .  A
C1066      H1077   1.082       .  S
C1067      C1076   1.376       .  A
C1067      C1068   1.384       .  A
C1068      C1069   1.403       .  A
C1068      N1074   1.349       .  A
C1069      C1070   1.406       .  A
C1069      H1078   1.082       .  S
C1070      C1073   1.374       .  A
N1071      C1072   1.356       .  A
N1071      H1081   1.045       .  S
C1072      C1073   1.396       .  A
C1073      H1079   1.083       .  S
N1074      C1075   1.356       .  A
N1074      H1082   1.045       .  S
C1075      C1076   1.398       .  A
C1076      H1080   1.083       .  S
C1083      C1088   1.383       .  A
C1083      C1084   1.406       .  A
C1083      N1089   1.351       .  A
C1084      C1085   1.407       .  A
C1084      H1095   1.082       .  S
C1085      C1094   1.379       .  A
C1085      C1086   1.383       .  A
C1086      C1087   1.413       .  A
C1086      N1092   1.356       .  A
C1087      C1088   1.415       .  A
C1087      H1096   1.082       .  S
C1088      C1091   1.386       .  A
N1089      C1090   1.357       .  A
N1089      H1099   1.045       .  S
C1090      C1091   1.402       .  A
C1091      H1097   1.082       .  S
N1092      C1093   1.362       .  A
N1092      H1100   1.045       .  S
C1093      C1094   1.397       .  A
C1094      H1098   1.082       .  S
C1101      C1106   1.386       .  A
C1101      C1102   1.402       .  A
C1101      N1107   1.342       .  A
C1102      C1103   1.401       .  A
C1102      H1113   1.083       .  S
C1103      C1112   1.376       .  A
C1103      C1104   1.386       .  A
C1104      C1105   1.402       .  A
C1104      N1110   1.342       .  A
C1105      C1106   1.400       .  A
C1105      H1114   1.083       .  S
C1106      C1109   1.377       .  A
N1107      C1108   1.355       .  A
N1107      H1117   1.045       .  S
C1108      C1109   1.393       .  A
C1109      H1115   1.083       .  S
N1110      C1111   1.354       .  A
N1110      H1118   1.045       .  S
C1111      C1112   1.393       .  A
C1112      H1116   1.083       .  S
C1119      C1124   1.384       .  A
C1119      C1120   1.407       .  A
C1119      N1125   1.343       .  A
C1120      C1121   1.404       .  A
C1120      H1131   1.082       .  S
C1121      C1130   1.386       .  A
C1121      C1122   1.383       .  A
C1122      C1123   1.407       .  A
C1122      N1128   1.343       .  A
C1123      C1124   1.404       .  A
C1123      H1132   1.082       .  S
C1124      C1127   1.384       .  A
N1125      C1126   1.355       .  A
N1125      H1135   1.045       .  S
C1126      C1127   1.395       .  A
C1127      H1133   1.083       .  S
N1128      C1129   1.359       .  A
N1128      H1136   1.045       .  S
C1129      C1130   1.396       .  A
C1130      H1134   1.082       .  S
C1137      C1142   1.384       .  A
C1137      C1138   1.403       .  A
C1137      N1143   1.345       .  A
C1138      C1139   1.403   1_655  A
C1138      H1149   1.082       .  S
C1139      C1148   1.376       .  A
C1139      C1140   1.384   1_455  A
C1140      C1141   1.411       .  A
C1140      N1146   1.353   1_655  A
C1141      C1142   1.412       .  A
C1141      H1150   1.082       .  S
C1142      C1145   1.388       .  A
N1143      C1144   1.355       .  A
N1143      H1153   1.045       .  S
C1144      C1145   1.399       .  A
C1145      H1151   1.082       .  S
N1146      C1147   1.360       .  A
N1146      H1154   1.044       .  S
C1147      C1148   1.396       .  A
C1148      H1152   1.083       .  S
C1155      C1160   1.384       .  A
C1155      C1156   1.406       .  A
C1155      N1161   1.348       .  A
C1156      C1157   1.406       .  A
C1156      H1167   1.082       .  S
C1157      C1166   1.380       .  A
C1157      C1158   1.384       .  A
C1158      C1159   1.409       .  A
C1158      N1164   1.349       .  A
C1159      C1160   1.409       .  A
C1159      H1168   1.082       .  S
C1160      C1163   1.384       .  A
N1161      C1162   1.357       .  A
N1161      H1171   1.045       .  S
C1162      C1163   1.399       .  A
C1163      H1169   1.082       .  S
N1164      C1165   1.358       .  A
N1164      H1172   1.045       .  S
C1165      C1166   1.396       .  A
C1166      H1170   1.082       .  S
C1173      C1178   1.383       .  A
C1173      C1174   1.407       .  A
C1173      N1179   1.345       .  A
C1174      C1175   1.405       .  A
C1174      H1185   1.082       .  S
C1175      C1184   1.383   1_545  A
C1175      C1176   1.384   1_545  A
C1176      C1177   1.408   1_565  A
C1176      N1182   1.346       .  A
C1177      C1178   1.407       .  A
C1177      H1186   1.082   1_545  S
C1178      C1181   1.385       .  A
N1179      C1180   1.357   1_455  A
N1179      H1189   1.045       .  S
C1180      C1181   1.397   1_655  A
C1181      H1187   1.082   1_455  S
N1182      C1183   1.358       .  A
N1182      H1190   1.045       .  S
C1183      C1184   1.396       .  A
C1184      H1188   1.082       .  S
C1191      C1196   1.384       .  A
C1191      C1192   1.400       .  A
C1191      N1197   1.339       .  A
C1192      C1193   1.400   1_455  A
C1192      H1203   1.083       .  S
C1193      C1202   1.377       .  A
C1193      C1194   1.387       .  A
C1194      C1195   1.403       .  A
C1194      N1200   1.341       .  A
C1195      C1196   1.399   1_655  A
C1195      H1204   1.083       .  S
C1196      C1199   1.380       .  A
N1197      C1198   1.354       .  A
N1197      H1207   1.045       .  S
C1198      C1199   1.392       .  A
C1199      H1205   1.082       .  S
N1200      C1201   1.353       .  A
N1200      H1208   1.045       .  S
C1201      C1202   1.394       .  A
C1202      H1206   1.083       .  S
C1209      C1214   1.384       .  A
C1209      C1210   1.410       .  A
C1209      N1215   1.348       .  A
C1210      C1211   1.408       .  A
C1210      H1221   1.082       .  S
C1211      C1220   1.388       .  A
C1211      C1212   1.383       .  A
C1212      C1213   1.406       .  A
C1212      N1218   1.343       .  A
C1213      C1214   1.404       .  A
C1213      H1222   1.083       .  S
C1214      C1217   1.382       .  A
N1215      C1216   1.357       .  A
N1215      H1225   1.044       .  S
C1216      C1217   1.396       .  A
C1217      H1223   1.083       .  S
N1218      C1219   1.358       .  A
N1218      H1226   1.045       .  S
C1219      C1220   1.398       .  A
C1220      H1224   1.082       .  S
C1227      C1232   1.385       .  A
C1227      C1228   1.401       .  A
C1227      N1233   1.345       .  A
C1228      C1229   1.401       .  A
C1228      H1239   1.082       .  S
C1229      C1238   1.374       .  A
C1229      C1230   1.385       .  A
C1230      C1231   1.407       .  A
C1230      N1236   1.349       .  A
C1231      C1232   1.408       .  A
C1231      H1240   1.082       .  S
C1232      C1235   1.380       .  A
N1233      C1234   1.353       .  A
N1233      H1243   1.045       .  S
C1234      C1235   1.397       .  A
C1235      H1241   1.083       .  S
N1236      C1237   1.357       .  A
N1236      H1244   1.045       .  S
C1237      C1238   1.391       .  A
C1238      H1242   1.083       .  S
C1245      C1250   1.384       .  A
C1245      C1246   1.408       .  A
C1245      N1251   1.349       .  A
C1246      C1247   1.409       .  A
C1246      H1257   1.082       .  S
C1247      C1256   1.382       .  A
C1247      C1248   1.384       .  A
C1248      C1249   1.405       .  A
C1248      N1254   1.347       .  A
C1249      C1250   1.405       .  A
C1249      H1258   1.082       .  S
C1250      C1253   1.380       .  A
N1251      C1252   1.358       .  A
N1251      H1261   1.045       .  S
C1252      C1253   1.396       .  A
C1253      H1259   1.082       .  S
N1254      C1255   1.355       .  A
N1254      H1262   1.045       .  S
C1255      C1256   1.399       .  A
C1256      H1260   1.083       .  S
C1263      C1268   1.384       .  A
C1263      C1264   1.407   1_554  A
C1263      N1269   1.345   1_554  A
C1264      C1265   1.405   1_556  A
C1264      H1275   1.082       .  S
C1265      C1274   1.384   1_654  A
C1265      C1266   1.383       .  A
C1266      C1267   1.411       .  A
C1266      N1272   1.349   1_655  A
C1267      C1268   1.410       .  A
C1267      H1276   1.082       .  S
C1268      C1271   1.388       .  A
N1269      C1270   1.356   1_556  A
N1269      H1279   1.045       .  S
C1270      C1271   1.399       .  A
C1271      H1277   1.082       .  S
N1272      C1273   1.360       .  A
N1272      H1280   1.045       .  S
C1273      C1274   1.396   1_554  A
C1274      H1278   1.082       .  S
C1281      C1286   1.385       .  A
C1281      C1282   1.402       .  A
C1281      N1287   1.340       .  A
C1282      C1283   1.400       .  A
C1282      H1293   1.082       .  S
C1283      C1292   1.378       .  A
C1283      C1284   1.385       .  A
C1284      C1285   1.405       .  A
C1284      N1290   1.343       .  A
C1285      C1286   1.403       .  A
C1285      H1294   1.082       .  S
C1286      C1289   1.381       .  A
N1287      C1288   1.353       .  A
N1287      H1297   1.045       .  S
C1288      C1289   1.395       .  A
C1289      H1295   1.082       .  S
N1290      C1291   1.356       .  A
N1290      H1298   1.045       .  S
C1291      C1292   1.392       .  A
C1292      H1296   1.082       .  S
C1299      C1304   1.385       .  A
C1299      C1300   1.407       .  A
C1299      N1305   1.352       .  A
C1300      C1301   1.408       .  A
C1300      H1311   1.082       .  S
C1301      C1310   1.378       .  A
C1301      C1302   1.385       .  A
C1302      C1303   1.406       .  A
C1302      N1308   1.351       .  A
C1303      C1304   1.408       .  A
C1303      H1312   1.082       .  S
C1304      C1307   1.378       .  A
N1305      C1306   1.357       .  A
N1305      H1315   1.045       .  S
C1306      C1307   1.397       .  A
C1307      H1313   1.083       .  S
N1308      C1309   1.356       .  A
N1308      H1316   1.045       .  S
C1309      C1310   1.397       .  A
C1310      H1314   1.083       .  S
C1317      C1322   1.384   1_556  A
C1317      C1318   1.404       .  A
C1317      N1323   1.346       .  A
C1318      C1319   1.405   1_545  A
C1318      H1329   1.083       .  S
C1319      C1328   1.377       .  A
C1319      C1320   1.384   1_566  A
C1320      C1321   1.405       .  A
C1320      N1326   1.348   1_545  A
C1321      C1322   1.405       .  A
C1321      H1330   1.082       .  S
C1322      C1325   1.378       .  A
N1323      C1324   1.356       .  A
N1323      H1333   1.045       .  S
C1324      C1325   1.395   1_556  A
C1325      H1331   1.082       .  S
N1326      C1327   1.356   1_554  A
N1326      H1334   1.045       .  S
C1327      C1328   1.396       .  A
C1328      H1332   1.082       .  S
C1335      C1340   1.385       .  A
C1335      C1336   1.404       .  A
C1335      N1341   1.348       .  A
C1336      C1337   1.405       .  A
C1336      H1347   1.082       .  S
C1337      C1346   1.376       .  A
C1337      C1338   1.384       .  A
C1338      C1339   1.405       .  A
C1338      N1344   1.350       .  A
C1339      C1340   1.406       .  A
C1339      H1348   1.082       .  S
C1340      C1343   1.376       .  A
N1341      C1342   1.354       .  A
N1341      H1351   1.045       .  S
C1342      C1343   1.397       .  A
C1343      H1349   1.083       .  S
N1344      C1345   1.356       .  A
N1344      H1352   1.044       .  S
C1345      C1346   1.398       .  A
C1346      H1350   1.083       .  S
C1353      C1358   1.384       .  A
C1353      C1354   1.406       .  A
C1353      N1359   1.347       .  A
C1354      C1355   1.406       .  A
C1354      H1365   1.083       .  S
C1355      C1364   1.378       .  A
C1355      C1356   1.383       .  A
C1356      C1357   1.412       .  A
C1356      N1362   1.355       .  A
C1357      C1358   1.412       .  A
C1357      H1366   1.082       .  S
C1358      C1361   1.388       .  A
N1359      C1360   1.357       .  A
N1359      H1369   1.045       .  S
C1360      C1361   1.398       .  A
C1361      H1367   1.082       .  S
N1362      C1363   1.360       .  A
N1362      H1370   1.044       .  S
C1363      C1364   1.400       .  A
C1364      H1368   1.083       .  S
C1371      C1376   1.383       .  A
C1371      C1372   1.409       .  A
C1371      N1377   1.346       .  A
C1372      C1373   1.406       .  A
C1372      H1383   1.082       .  S
C1373      C1382   1.388       .  A
C1373      C1374   1.383       .  A
C1374      C1375   1.409       .  A
C1374      N1380   1.345       .  A
C1375      C1376   1.407       .  A
C1375      H1384   1.082       .  S
C1376      C1379   1.387       .  A
N1377      C1378   1.357       .  A
N1377      H1387   1.045       .  S
C1378      C1379   1.400       .  A
C1379      H1385   1.083       .  S
N1380      C1381   1.358       .  A
N1380      H1388   1.045       .  S
C1381      C1382   1.399       .  A
C1382      H1386   1.082       .  S
C1389      C1394   1.385       .  A
C1389      C1390   1.404       .  A
C1389      N1395   1.340       .  A
C1390      C1391   1.401       .  A
C1390      H1401   1.083       .  S
C1391      C1400   1.378       .  A
C1391      C1392   1.385       .  A
C1392      C1393   1.401       .  A
C1392      N1398   1.340       .  A
C1393      C1394   1.399       .  A
C1393      H1402   1.082       .  S
C1394      C1397   1.378       .  A
N1395      C1396   1.356       .  A
N1395      H1405   1.045       .  S
C1396      C1397   1.392       .  A
C1397      H1403   1.083       .  S
N1398      C1399   1.353       .  A
N1398      H1406   1.045       .  S
C1399      C1400   1.395       .  A
C1400      H1404   1.083       .  S
C1407      C1412   1.384       .  A
C1407      C1408   1.405       .  A
C1407      N1413   1.350       .  A
C1408      C1409   1.407       .  A
C1408      H1419   1.082       .  S
C1409      C1418   1.376       .  A
C1409      C1410   1.385       .  A
C1410      C1411   1.403       .  A
C1410      N1416   1.349       .  A
C1411      C1412   1.404       .  A
C1411      H1420   1.082       .  S
C1412      C1415   1.374       .  A
N1413      C1414   1.357       .  A
N1413      H1423   1.045       .  S
C1414      C1415   1.396       .  A
C1415      H1421   1.083       .  S
N1416      C1417   1.355       .  A
N1416      H1424   1.044       .  S
C1417      C1418   1.398       .  A
C1418      H1422   1.083       .  S
C1425      C1430   1.384   1_556  A
C1425      C1426   1.407       .  A
C1425      N1431   1.348       .  A
C1426      C1427   1.407       .  A
C1426      H1437   1.083       .  S
C1427      C1436   1.380       .  A
C1427      C1428   1.385   1_556  A
C1428      C1429   1.404       .  A
C1428      N1434   1.347       .  A
C1429      C1430   1.404       .  A
C1429      H1438   1.082       .  S
C1430      C1433   1.378       .  A
N1431      C1432   1.357   1_556  A
N1431      H1441   1.045       .  S
C1432      C1433   1.395       .  A
C1433      H1439   1.082       .  S
N1434      C1435   1.354       .  A
N1434      H1442   1.044       .  S
C1435      C1436   1.398   1_554  A
C1436      H1440   1.083       .  S
C1443      C1448   1.388       .  A
C1443      C1444   1.397       .  A
C1443      N1449   1.340       .  A
C1444      C1445   1.396       .  A
C1444      H1455   1.083       .  S
C1445      C1454   1.371       .  A
C1445      C1446   1.386       .  A
C1446      C1447   1.400       .  A
C1446      N1452   1.341       .  A
C1447      C1448   1.400       .  A
C1447      H1456   1.083       .  S
C1448      C1451   1.372       .  A
N1449      C1450   1.350       .  A
N1449      H1459   1.045       .  S
C1450      C1451   1.391       .  A
C1451      H1457   1.083       .  S
N1452      C1453   1.353       .  A
N1452      H1460   1.045       .  S
C1453      C1454   1.389       .  A
C1454      H1458   1.083       .  S
C1461      C1466   1.385       .  A
C1461      C1462   1.404       .  A
C1461      N1467   1.340       .  A
C1462      C1463   1.401       .  A
C1462      H1473   1.082       .  S
C1463      C1472   1.382       .  A
C1463      C1464   1.384       .  A
C1464      C1465   1.405       .  A
C1464      N1470   1.341       .  A
C1465      C1466   1.402       .  A
C1465      H1474   1.082       .  S
C1466      C1469   1.383       .  A
N1467      C1468   1.354       .  A
N1467      H1477   1.045       .  S
C1468      C1469   1.393       .  A
C1469      H1475   1.082       .  S
N1470      C1471   1.356       .  A
N1470      H1478   1.045       .  S
C1471      C1472   1.393       .  A
C1472      H1476   1.082       .  S
C1479      C1484   1.384   1_556  A
C1479      C1480   1.403       .  A
C1479      N1485   1.344       .  A
C1480      C1481   1.403       .  A
C1480      H1491   1.083       .  S
C1481      C1490   1.376       .  A
C1481      C1482   1.384   1_556  A
C1482      C1483   1.406       .  A
C1482      N1488   1.348       .  A
C1483      C1484   1.406       .  A
C1483      H1492   1.082       .  S
C1484      C1487   1.380       .  A
N1485      C1486   1.355       .  A
N1485      H1495   1.045       .  S
C1486      C1487   1.396   1_556  A
C1487      H1493   1.082       .  S
N1488      C1489   1.357   1_554  A
N1488      H1496   1.044       .  S
C1489      C1490   1.396       .  A
C1490      H1494   1.083       .  S
C1497      C1502   1.386       .  A
C1497      C1498   1.402       .  A
C1497      N1503   1.342       .  A
C1498      C1499   1.401       .  A
C1498      H1509   1.083       .  S
C1499      C1508   1.376       .  A
C1499      C1500   1.385       .  A
C1500      C1501   1.402       .  A
C1500      N1506   1.343       .  A
C1501      C1502   1.401       .  A
C1501      H1510   1.082       .  S
C1502      C1505   1.377       .  A
N1503      C1504   1.354       .  A
N1503      H1513   1.045       .  S
C1504      C1505   1.393       .  A
C1505      H1511   1.083       .  S
N1506      C1507   1.354       .  A
N1506      H1514   1.045       .  S
C1507      C1508   1.395       .  A
C1508      H1512   1.083       .  S
C1515      C1520   1.384       .  A
C1515      C1516   1.407       .  A
C1515      N1521   1.345       .  A
C1516      C1517   1.405       .  A
C1516      H1527   1.082       .  S
C1517      C1526   1.383       .  A
C1517      C1518   1.384       .  A
C1518      C1519   1.407       .  A
C1518      N1524   1.345       .  A
C1519      C1520   1.406       .  A
C1519      H1528   1.082       .  S
C1520      C1523   1.384       .  A
N1521      C1522   1.357       .  A
N1521      H1531   1.045       .  S
C1522      C1523   1.397       .  A
C1523      H1529   1.082       .  S
N1524      C1525   1.357       .  A
N1524      H1532   1.045       .  S
C1525      C1526   1.397       .  A
C1526      H1530   1.082       .  S
C1533      C1538   1.384   1_565  A
C1533      C1534   1.407   1_565  A
C1533      N1539   1.344       .  A
C1534      C1535   1.406       .  A
C1534      H1545   1.082       .  S
C1535      C1544   1.384       .  A
C1535      C1536   1.384       .  A
C1536      C1537   1.404       .  A
C1536      N1542   1.342       .  A
C1537      C1538   1.402       .  A
C1537      H1546   1.082       .  S
C1538      C1541   1.380   1_545  A
N1539      C1540   1.356       .  A
N1539      H1549   1.045       .  S
C1540      C1541   1.394       .  A
C1541      H1547   1.083       .  S
N1542      C1543   1.355       .  A
N1542      H1550   1.045       .  S
C1543      C1544   1.397       .  A
C1544      H1548   1.083       .  S
C1551      C1556   1.386       .  A
C1551      C1552   1.399       .  A
C1551      N1557   1.338       .  A
C1552      C1553   1.397       .  A
C1552      H1563   1.083       .  S
C1553      C1562   1.374       .  A
C1553      C1554   1.387       .  A
C1554      C1555   1.402       .  A
C1554      N1560   1.341       .  A
C1555      C1556   1.400       .  A
C1555      H1564   1.083       .  S
C1556      C1559   1.378       .  A
N1557      C1558   1.352       .  A
N1557      H1567   1.045       .  S
C1558      C1559   1.393       .  A
C1559      H1565   1.082       .  S
N1560      C1561   1.354       .  A
N1560      H1568   1.045       .  S
C1561      C1562   1.391       .  A
C1562      H1566   1.083       .  S
C1569      C1574   1.384       .  A
C1569      C1570   1.410       .  A
C1569      N1575   1.348       .  A
C1570      C1571   1.409       .  A
C1570      H1581   1.082       .  S
C1571      C1580   1.389       .  A
C1571      C1572   1.384       .  A
C1572      C1573   1.406       .  A
C1572      N1578   1.344       .  A
C1573      C1574   1.404       .  A
C1573      H1582   1.082       .  S
C1574      C1577   1.382       .  A
N1575      C1576   1.358       .  A
N1575      H1585   1.044       .  S
C1576      C1577   1.395       .  A
C1577      H1583   1.083       .  S
N1578      C1579   1.356       .  A
N1578      H1586   1.045       .  S
C1579      C1580   1.398       .  A
C1580      H1584   1.082       .  S
C1587      C1592   1.385       .  A
C1587      C1588   1.401       .  A
C1587      N1593   1.340       .  A
C1588      C1589   1.400       .  A
C1588      H1599   1.083       .  S
C1589      C1598   1.375       .  A
C1589      C1590   1.385       .  A
C1590      C1591   1.404       .  A
C1590      N1596   1.342       .  A
C1591      C1592   1.402       .  A
C1591      H1600   1.082       .  S
C1592      C1595   1.379       .  A
N1593      C1594   1.354       .  A
N1593      H1603   1.045       .  S
C1594      C1595   1.393       .  A
C1595      H1601   1.082       .  S
N1596      C1597   1.355       .  A
N1596      H1604   1.045       .  S
C1597      C1598   1.392       .  A
C1598      H1602   1.083       .  S
C1605      C1610   1.385       .  A
C1605      C1606   1.406       .  A
C1605      N1611   1.348       .  A
C1606      C1607   1.406       .  A
C1606      H1617   1.082       .  S
C1607      C1616   1.381       .  A
C1607      C1608   1.384       .  A
C1608      C1609   1.405       .  A
C1608      N1614   1.347       .  A
C1609      C1610   1.405       .  A
C1609      H1618   1.082       .  S
C1610      C1613   1.379       .  A
N1611      C1612   1.357       .  A
N1611      H1621   1.045       .  S
C1612      C1613   1.396       .  A
C1613      H1619   1.083       .  S
N1614      C1615   1.356       .  A
N1614      H1622   1.045       .  S
C1615      C1616   1.397       .  A
C1616      H1620   1.082       .  S
C1623      C1628   1.384       .  A
C1623      C1624   1.404       .  A
C1623      N1629   1.342       .  A
C1624      C1625   1.402       .  A
C1624      H1635   1.083       .  S
C1625      C1634   1.379       .  A
C1625      C1626   1.384       .  A
C1626      C1627   1.410       .  A
C1626      N1632   1.348       .  A
C1627      C1628   1.408       .  A
C1627      H1636   1.082       .  S
C1628      C1631   1.388       .  A
N1629      C1630   1.357       .  A
N1629      H1639   1.045       .  S
C1630      C1631   1.398       .  A
C1631      H1637   1.082       .  S
N1632      C1633   1.357       .  A
N1632      H1640   1.044       .  S
C1633      C1634   1.394       .  A
C1634      H1638   1.083       .  S
C1641      C1646   1.385       .  A
C1641      C1642   1.404       .  A
C1641      N1647   1.344       .  A
C1642      C1643   1.403       .  A
C1642      H1653   1.082       .  S
C1643      C1652   1.379       .  A
C1643      C1644   1.385       .  A
C1644      C1645   1.405       .  A
C1644      N1650   1.345       .  A
C1645      C1646   1.404       .  A
C1645      H1654   1.082       .  S
C1646      C1649   1.380       .  A
N1647      C1648   1.355       .  A
N1647      H1657   1.045       .  S
C1648      C1649   1.395       .  A
C1649      H1655   1.083       .  S
N1650      C1651   1.355       .  A
N1650      H1658   1.045       .  S
C1651      C1652   1.394       .  A
C1652      H1656   1.083       .  S
C1659      C1664   1.387       .  A
C1659      C1660   1.403       .  A
C1659      N1665   1.340       .  A
C1660      C1661   1.400       .  A
C1660      H1671   1.083       .  S
C1661      C1670   1.381       .  A
C1661      C1662   1.385       .  A
C1662      C1663   1.401       .  A
C1662      N1668   1.339       .  A
C1663      C1664   1.399       .  A
C1663      H1672   1.083       .  S
C1664      C1667   1.378       .  A
N1665      C1666   1.353       .  A
N1665      H1675   1.045       .  S
C1666      C1667   1.394       .  A
C1667      H1673   1.083       .  S
N1668      C1669   1.354       .  A
N1668      H1676   1.045       .  S
C1669      C1670   1.393       .  A
C1670      H1674   1.082       .  S
C1677      C1682   1.384       .  A
C1677      C1678   1.407       .  A
C1677      N1683   1.342       .  A
C1678      C1679   1.404       .  A
C1678      H1689   1.082       .  S
C1679      C1688   1.387       .  A
C1679      C1680   1.385       .  A
C1680      C1681   1.404       .  A
C1680      N1686   1.339       .  A
C1681      C1682   1.400       .  A
C1681      H1690   1.083       .  S
C1682      C1685   1.382       .  A
N1683      C1684   1.356       .  A
N1683      H1693   1.045       .  S
C1684      C1685   1.392       .  A
C1685      H1691   1.083       .  S
N1686      C1687   1.355       .  A
N1686      H1694   1.045       .  S
C1687      C1688   1.396       .  A
C1688      H1692   1.082       .  S
C1695      C1700   1.383   1_565  A
C1695      C1696   1.408   1_565  A
C1695      N1701   1.345       .  A
C1696      C1697   1.406       .  A
C1696      H1707   1.082   1_545  S
C1697      C1706   1.385       .  A
C1697      C1698   1.383       .  A
C1698      C1699   1.409       .  A
C1698      N1704   1.346       .  A
C1699      C1700   1.407       .  A
C1699      H1708   1.082       .  S
C1700      C1703   1.387   1_545  A
N1701      C1702   1.358       .  A
N1701      H1711   1.045       .  S
C1702      C1703   1.398       .  A
C1703      H1709   1.082       .  S
N1704      C1705   1.357       .  A
N1704      H1712   1.045       .  S
C1705      C1706   1.397       .  A
C1706      H1710   1.083       .  S
C1713      C1718   1.384       .  A
C1713      C1714   1.407       .  A
C1713      N1719   1.345       .  A
C1714      C1715   1.405       .  A
C1714      H1725   1.082       .  S
C1715      C1724   1.384       .  A
C1715      C1716   1.384       .  A
C1716      C1717   1.406       .  A
C1716      N1722   1.344       .  A
C1717      C1718   1.404       .  A
C1717      H1726   1.082       .  S
C1718      C1721   1.383       .  A
N1719      C1720   1.357       .  A
N1719      H1729   1.045       .  S
C1720      C1721   1.396       .  A
C1721      H1727   1.082       .  S
N1722      C1723   1.356       .  A
N1722      H1730   1.045       .  S
C1723      C1724   1.396       .  A
C1724      H1728   1.083       .  S
C1731      C1736   1.384       .  A
C1731      C1732   1.406       .  A
C1731      N1737   1.345       .  A
C1732      C1733   1.405       .  A
C1732      H1743   1.082       .  S
C1733      C1742   1.382   1_655  A
C1733      C1734   1.384       .  A
C1734      C1735   1.410       .  A
C1734      N1740   1.349   1_655  A
C1735      C1736   1.409       .  A
C1735      H1744   1.082       .  S
C1736      C1739   1.387       .  A
N1737      C1738   1.356       .  A
N1737      H1747   1.045       .  S
C1738      C1739   1.398       .  A
C1739      H1745   1.082       .  S
N1740      C1741   1.358       .  A
N1740      H1748   1.044       .  S
C1741      C1742   1.396       .  A
C1742      H1746   1.082       .  S
C1749      C1754   1.385       .  A
C1749      C1750   1.403       .  A
C1749      N1755   1.340       .  A
C1750      C1751   1.400       .  A
C1750      H1761   1.082       .  S
C1751      C1760   1.379       .  A
C1751      C1752   1.385       .  A
C1752      C1753   1.407       .  A
C1752      N1758   1.344       .  A
C1753      C1754   1.405       .  A
C1753      H1762   1.082       .  S
C1754      C1757   1.385       .  A
N1755      C1756   1.354       .  A
N1755      H1765   1.045       .  S
C1756      C1757   1.396       .  A
C1757      H1763   1.082       .  S
N1758      C1759   1.357       .  A
N1758      H1766   1.045       .  S
C1759      C1760   1.392       .  A
C1760      H1764   1.082       .  S
C1767      C1772   1.384       .  A
C1767      C1768   1.409       .  A
C1767      N1773   1.346       .  A
C1768      C1769   1.407       .  A
C1768      H1779   1.082       .  S
C1769      C1778   1.386       .  A
C1769      C1770   1.384       .  A
C1770      C1771   1.402       .  A
C1770      N1776   1.340       .  A
C1771      C1772   1.400       .  A
C1771      H1780   1.083       .  S
C1772      C1775   1.377       .  A
N1773      C1774   1.357       .  A
N1773      H1783   1.045       .  S
C1774      C1775   1.393       .  A
C1775      H1781   1.083       .  S
N1776      C1777   1.355       .  A
N1776      H1784   1.045       .  S
C1777      C1778   1.398       .  A
C1778      H1782   1.082       .  S
C1785      C1790   1.385       .  A
C1785      C1786   1.406       .  A
C1785      N1791   1.347       .  A
C1786      C1787   1.406       .  A
C1786      H1797   1.082       .  S
C1787      C1796   1.380       .  A
C1787      C1788   1.384       .  A
C1788      C1789   1.405       .  A
C1788      N1794   1.347       .  A
C1789      C1790   1.405       .  A
C1789      H1798   1.082       .  S
C1790      C1793   1.378       .  A
N1791      C1792   1.356       .  A
N1791      H1801   1.045       .  S
C1792      C1793   1.396       .  A
C1793      H1799   1.083       .  S
N1794      C1795   1.356       .  A
N1794      H1802   1.045       .  S
C1795      C1796   1.398       .  A
C1796      H1800   1.083       .  S
C1803      C1808   1.383       .  A
C1803      C1804   1.409       .  A
C1803      N1809   1.347       .  A
C1804      C1805   1.407       .  A
C1804      H1815   1.082       .  S
C1805      C1814   1.386       .  A
C1805      C1806   1.383       .  A
C1806      C1807   1.405       .  A
C1806      N1812   1.344       .  A
C1807      C1808   1.404       .  A
C1807      H1816   1.082       .  S
C1808      C1811   1.382   1_455  A
N1809      C1810   1.359   1_455  A
N1809      H1819   1.045       .  S
C1810      C1811   1.395       .  A
C1811      H1817   1.083       .  S
N1812      C1813   1.357       .  A
N1812      H1820   1.045       .  S
C1813      C1814   1.398       .  A
C1814      H1818   1.082       .  S
C1821      C1826   1.383       .  A
C1821      C1822   1.413       .  A
C1821      N1827   1.354       .  A
C1822      C1823   1.414       .  A
C1822      H1833   1.082       .  S
C1823      C1832   1.390       .  A
C1823      C1824   1.384       .  A
C1824      C1825   1.402       .  A
C1824      N1830   1.344       .  A
C1825      C1826   1.401       .  A
C1825      H1834   1.083       .  S
C1826      C1829   1.372       .  A
N1827      C1828   1.360       .  A
N1827      H1837   1.044       .  S
C1828      C1829   1.395       .  A
C1829      H1835   1.083       .  S
N1830      C1831   1.355       .  A
N1830      H1838   1.045       .  S
C1831      C1832   1.401       .  A
C1832      H1836   1.082       .  S
C1839      C1844   1.385       .  A
C1839      C1840   1.402       .  A
C1839      N1845   1.341       .  A
C1840      C1841   1.401       .  A
C1840      H1851   1.082       .  S
C1841      C1850   1.378       .  A
C1841      C1842   1.385       .  A
C1842      C1843   1.405       .  A
C1842      N1848   1.343       .  A
C1843      C1844   1.403       .  A
C1843      H1852   1.082       .  S
C1844      C1847   1.381       .  A
N1845      C1846   1.353       .  A
N1845      H1855   1.045       .  S
C1846      C1847   1.394       .  A
C1847      H1853   1.082       .  S
N1848      C1849   1.355       .  A
N1848      H1856   1.045       .  S
C1849      C1850   1.393       .  A
C1850      H1854   1.083       .  S
C1857      C1862   1.384       .  A
C1857      C1858   1.407       .  A
C1857      N1863   1.343       .  A
C1858      C1859   1.405       .  A
C1858      H1869   1.082       .  S
C1859      C1868   1.385       .  A
C1859      C1860   1.384       .  A
C1860      C1861   1.409       .  A
C1860      N1866   1.345       .  A
C1861      C1862   1.406       .  A
C1861      H1870   1.082       .  S
C1862      C1865   1.388       .  A
N1863      C1864   1.358       .  A
N1863      H1873   1.045       .  S
C1864      C1865   1.396       .  A
C1865      H1871   1.082       .  S
N1866      C1867   1.358       .  A
N1866      H1874   1.045       .  S
C1867      C1868   1.395       .  A
C1868      H1872   1.082       .  S
C1875      C1880   1.384       .  A
C1875      C1876   1.407       .  A
C1875      N1881   1.342       .  A
C1876      C1877   1.404       .  A
C1876      H1887   1.082       .  S
C1877      C1886   1.387       .  A
C1877      C1878   1.384       .  A
C1878      C1879   1.405       .  A
C1878      N1884   1.339       .  A
C1879      C1880   1.401       .  A
C1879      H1888   1.082       .  S
C1880      C1883   1.383       .  A
N1881      C1882   1.357       .  A
N1881      H1891   1.045       .  S
C1882      C1883   1.394       .  A
C1883      H1889   1.082       .  S
N1884      C1885   1.357       .  A
N1884      H1892   1.045       .  S
C1885      C1886   1.396       .  A
C1886      H1890   1.082       .  S
C1893      C1898   1.384       .  A
C1893      C1894   1.404       .  A
C1893      N1899   1.344       .  A
C1894      C1895   1.403       .  A
C1894      H1905   1.082       .  S
C1895      C1904   1.381   1_545  A
C1895      C1896   1.384       .  A
C1896      C1897   1.410       .  A
C1896      N1902   1.347   1_545  A
C1897      C1898   1.408       .  A
C1897      H1906   1.082       .  S
C1898      C1901   1.386       .  A
N1899      C1900   1.355       .  A
N1899      H1909   1.045       .  S
C1900      C1901   1.397       .  A
C1901      H1907   1.082       .  S
N1902      C1903   1.359       .  A
N1902      H1910   1.045       .  S
C1903      C1904   1.394       .  A
C1904      H1908   1.082       .  S
C1911      C1916   1.384       .  A
C1911      C1912   1.409       .  A
C1911      N1917   1.350       .  A
C1912      C1913   1.409       .  A
C1912      H1923   1.082       .  S
C1913      C1922   1.383       .  A
C1913      C1914   1.384       .  A
C1914      C1915   1.404       .  A
C1914      N1920   1.347       .  A
C1915      C1916   1.405       .  A
C1915      H1924   1.082       .  S
C1916      C1919   1.378       .  A
N1917      C1918   1.357       .  A
N1917      H1927   1.045       .  S
C1918      C1919   1.397       .  A
C1919      H1925   1.083       .  S
N1920      C1921   1.355       .  A
N1920      H1928   1.045       .  S
C1921      C1922   1.399       .  A
C1922      H1926   1.082       .  S
C1929      C1934   1.385       .  A
C1929      C1930   1.402       .  A
C1929      N1935   1.342       .  A
C1930      C1931   1.401       .  A
C1930      H1941   1.083       .  S
C1931      C1940   1.377       .  A
C1931      C1932   1.386       .  A
C1932      C1933   1.404       .  A
C1932      N1938   1.344       .  A
C1933      C1934   1.403       .  A
C1933      H1942   1.082       .  S
C1934      C1937   1.379       .  A
N1935      C1936   1.355       .  A
N1935      H1945   1.045       .  S
C1936      C1937   1.394       .  A
C1937      H1943   1.083       .  S
N1938      C1939   1.355       .  A
N1938      H1946   1.045       .  S
C1939      C1940   1.394       .  A
C1940      H1944   1.083       .  S
C1947      C1952   1.386       .  A
C1947      C1948   1.403       .  A
C1947      N1953   1.341       .  A
C1948      C1949   1.401       .  A
C1948      H1959   1.083       .  S
C1949      C1958   1.378       .  A
C1949      C1950   1.386       .  A
C1950      C1951   1.398       .  A
C1950      N1956   1.337       .  A
C1951      C1952   1.397       .  A
C1951      H1960   1.083       .  S
C1952      C1955   1.372       .  A
N1953      C1954   1.353       .  A
N1953      H1963   1.045       .  S
C1954      C1955   1.391       .  A
C1955      H1961   1.083       .  S
N1956      C1957   1.352       .  A
N1956      H1964   1.045       .  S
C1957      C1958   1.393       .  A
C1958      H1962   1.082       .  S
C1965      C1970   1.385       .  A
C1965      C1966   1.404       .  A
C1965      N1971   1.339       .  A
C1966      C1967   1.401       .  A
C1966      H1977   1.082       .  S
C1967      C1976   1.382       .  A
C1967      C1968   1.384       .  A
C1968      C1969   1.406       .  A
C1968      N1974   1.341       .  A
C1969      C1970   1.403       .  A
C1969      H1978   1.082       .  S
C1970      C1973   1.383       .  A
N1971      C1972   1.355       .  A
N1971      H1981   1.045       .  S
C1972      C1973   1.395       .  A
C1973      H1979   1.082       .  S
N1974      C1975   1.358       .  A
N1974      H1982   1.045       .  S
C1975      C1976   1.394       .  A
C1976      H1980   1.082       .  S
C1983      C1988   1.383       .  A
C1983      C1984   1.408       .  A
C1983      N1989   1.346       .  A
C1984      C1985   1.407       .  A
C1984      H1995   1.082       .  S
C1985      C1994   1.384       .  A
C1985      C1986   1.383       .  A
C1986      C1987   1.408       .  A
C1986      N1992   1.346       .  A
C1987      C1988   1.406       .  A
C1987      H1996   1.082       .  S
C1988      C1991   1.385       .  A
N1989      C1990   1.359       .  A
N1989      H1999   1.045       .  S
C1990      C1991   1.398       .  A
C1991      H1997   1.082       .  S
N1992      C1993   1.358       .  A
N1992      H2000   1.045       .  S
C1993      C1994   1.397       .  A
C1994      H1998   1.083       .  S
C2001      C2006   1.386       .  A
C2001      C2002   1.402       .  A
C2001      N2007   1.342       .  A
C2002      C2003   1.400       .  A
C2002      H2013   1.083       .  S
C2003      C2012   1.376       .  A
C2003      C2004   1.385       .  A
C2004      C2005   1.402       .  A
C2004      N2010   1.343       .  A
C2005      C2006   1.401       .  A
C2005      H2014   1.083       .  S
C2006      C2009   1.377       .  A
N2007      C2008   1.355       .  A
N2007      H2017   1.045       .  S
C2008      C2009   1.394       .  A
C2009      H2015   1.083       .  S
N2010      C2011   1.355       .  A
N2010      H2018   1.045       .  S
C2011      C2012   1.393       .  A
C2012      H2016   1.083       .  S
C2019      C2024   1.383       .  A
C2019      C2020   1.405       .  A
C2019      N2025   1.340       .  A
C2020      C2021   1.402       .  A
C2020      H2031   1.083       .  S
C2021      C2030   1.382       .  A
C2021      C2022   1.384       .  A
C2022      C2023   1.411       .  A
C2022      N2028   1.347       .  A
C2023      C2024   1.409       .  A
C2023      H2032   1.082       .  S
C2024      C2027   1.392   1_545  A
N2025      C2026   1.358   1_545  A
N2025      H2035   1.045       .  S
C2026      C2027   1.400       .  A
C2027      H2033   1.082       .  S
N2028      C2029   1.357       .  A
N2028      H2036   1.044       .  S
C2029      C2030   1.395       .  A
C2030      H2034   1.083       .  S
C2037      C2042   1.384       .  A
C2037      C2038   1.403       .  A
C2037      N2043   1.339       .  A
C2038      C2039   1.400       .  A
C2038      H2049   1.082       .  S
C2039      C2048   1.381       .  A
C2039      C2040   1.384       .  A
C2040      C2041   1.408       .  A
C2040      N2046   1.342       .  A
C2041      C2042   1.404       .  A
C2041      H2050   1.082       .  S
C2042      C2045   1.385       .  A
N2043      C2044   1.355       .  A
N2043      H2053   1.045       .  S
C2044      C2045   1.395       .  A
C2045      H2051   1.082       .  S
N2046      C2047   1.358       .  A
N2046      H2054   1.045       .  S
C2047      C2048   1.392       .  A
C2048      H2052   1.082       .  S
C2055      C2060   1.384       .  A
C2055      C2056   1.407       .  A
C2055      N2061   1.345       .  A
C2056      C2057   1.405       .  A
C2056      H2067   1.082       .  S
C2057      C2066   1.383       .  A
C2057      C2058   1.384       .  A
C2058      C2059   1.407       .  A
C2058      N2064   1.346       .  A
C2059      C2060   1.406       .  A
C2059      H2068   1.082       .  S
C2060      C2063   1.385       .  A
N2061      C2062   1.357       .  A
N2061      H2071   1.045       .  S
C2062      C2063   1.397       .  A
C2063      H2069   1.082       .  S
N2064      C2065   1.357       .  A
N2064      H2072   1.045       .  S
C2065      C2066   1.395       .  A
C2066      H2070   1.082       .  S
C2073      C2078   1.384       .  A
C2073      C2074   1.406       .  A
C2073      N2079   1.344       .  A
C2074      C2075   1.404       .  A
C2074      H2085   1.082       .  S
C2075      C2084   1.382       .  A
C2075      C2076   1.383       .  A
C2076      C2077   1.410       .  A
C2076      N2082   1.348       .  A
C2077      C2078   1.409       .  A
C2077      H2086   1.082       .  S
C2078      C2081   1.387       .  A
N2079      C2080   1.356       .  A
N2079      H2089   1.045       .  S
C2080      C2081   1.399       .  A
C2081      H2087   1.082       .  S
N2082      C2083   1.360       .  A
N2082      H2090   1.045       .  S
C2083      C2084   1.396       .  A
C2084      H2088   1.082       .  S
C2091      C2096   1.383       .  A
C2091      C2092   1.412       .  A
C2091      N2097   1.353       .  A
C2092      C2093   1.412       .  A
C2092      H2103   1.082       .  S
C2093      C2102   1.388       .  A
C2093      C2094   1.384       .  A
C2094      C2095   1.403       .  A
C2094      N2100   1.345       .  A
C2095      C2096   1.403       .  A
C2095      H2104   1.083       .  S
C2096      C2099   1.375       .  A
N2097      C2098   1.360       .  A
N2097      H2107   1.044       .  S
C2098      C2099   1.397       .  A
C2099      H2105   1.083       .  S
N2100      C2101   1.355       .  A
N2100      H2108   1.045       .  S
C2101      C2102   1.399       .  A
C2102      H2106   1.082       .  S
C2109      C2114   1.384       .  A
C2109      C2110   1.405       .  A
C2109      N2115   1.346       .  A
C2110      C2111   1.404       .  A
C2110      H2121   1.082       .  S
C2111      C2120   1.381       .  A
C2111      C2112   1.384       .  A
C2112      C2113   1.408       .  A
C2112      N2118   1.347       .  A
C2113      C2114   1.407       .  A
C2113      H2122   1.082       .  S
C2114      C2117   1.383       .  A
N2115      C2116   1.355       .  A
N2115      H2125   1.045       .  S
C2116      C2117   1.398       .  A
C2117      H2123   1.083       .  S
N2118      C2119   1.357       .  A
N2118      H2126   1.045       .  S
C2119      C2120   1.395       .  A
C2120      H2124   1.082       .  S
C2127      C2132   1.385       .  A
C2127      C2128   1.398       .  A
C2127      N2133   1.339       .  A
C2128      C2129   1.398       .  A
C2128      H2139   1.083       .  S
C2129      C2138   1.373       .  A
C2129      C2130   1.386       .  A
C2130      C2131   1.406       .  A
C2130      N2136   1.344       .  A
C2131      C2132   1.403       .  A
C2131      H2140   1.083       .  S
C2132      C2135   1.382       .  A
N2133      C2134   1.352       .  A
N2133      H2143   1.045       .  S
C2134      C2135   1.395       .  A
C2135      H2141   1.082       .  S
N2136      C2137   1.356       .  A
N2136      H2144   1.045       .  S
C2137      C2138   1.392       .  A
C2138      H2142   1.083       .  S
C2145      C2150   1.384       .  A
C2145      C2146   1.407       .  A
C2145      N2151   1.346       .  A
C2146      C2147   1.406       .  A
C2146      H2157   1.082       .  S
C2147      C2156   1.384       .  A
C2147      C2148   1.384       .  A
C2148      C2149   1.405       .  A
C2148      N2154   1.344       .  A
C2149      C2150   1.404       .  A
C2149      H2158   1.082       .  S
C2150      C2153   1.381       .  A
N2151      C2152   1.357       .  A
N2151      H2161   1.045       .  S
C2152      C2153   1.395       .  A
C2153      H2159   1.082       .  S
N2154      C2155   1.356       .  A
N2154      H2162   1.045       .  S
C2155      C2156   1.397       .  A
C2156      H2160   1.082       .  S
C2163      C2168   1.384       .  A
C2163      C2164   1.406       .  A
C2163      N2169   1.351       .  A
C2164      C2165   1.408       .  A
C2164      H2175   1.083       .  S
C2165      C2174   1.377       .  A
C2165      C2166   1.385       .  A
C2166      C2167   1.406       .  A
C2166      N2172   1.352       .  A
C2167      C2168   1.407       .  A
C2167      H2176   1.082       .  S
C2168      C2171   1.378       .  A
N2169      C2170   1.357       .  A
N2169      H2179   1.045       .  S
C2170      C2171   1.395       .  A
C2171      H2177   1.083       .  S
N2172      C2173   1.356       .  A
N2172      H2180   1.045       .  S
C2173      C2174   1.398       .  A
C2174      H2178   1.083       .  S
C2181      C2186   1.384   1_554  A
C2181      C2182   1.408       .  A
C2181      N2187   1.346       .  A
C2182      C2183   1.407       .  A
C2182      H2193   1.082       .  S
C2183      C2192   1.385       .  A
C2183      C2184   1.384   1_554  A
C2184      C2185   1.407       .  A
C2184      N2190   1.346       .  A
C2185      C2186   1.406       .  A
C2185      H2194   1.082       .  S
C2186      C2189   1.384       .  A
N2187      C2188   1.358       .  A
N2187      H2197   1.045       .  S
C2188      C2189   1.396   1_554  A
C2189      H2195   1.082       .  S
N2190      C2191   1.356   1_556  A
N2190      H2198   1.045       .  S
C2191      C2192   1.397       .  A
C2192      H2196   1.082       .  S
C2199      C2204   1.385       .  A
C2199      C2200   1.403       .  A
C2199      N2205   1.340       .  A
C2200      C2201   1.400       .  A
C2200      H2211   1.082       .  S
C2201      C2210   1.379       .  A
C2201      C2202   1.385       .  A
C2202      C2203   1.403       .  A
C2202      N2208   1.341       .  A
C2203      C2204   1.402       .  A
C2203      H2212   1.083       .  S
C2204      C2207   1.380       .  A
N2205      C2206   1.354       .  A
N2205      H2215   1.045       .  S
C2206      C2207   1.394       .  A
C2207      H2213   1.083       .  S
N2208      C2209   1.355       .  A
N2208      H2216   1.045       .  S
C2209      C2210   1.393       .  A
C2210      H2214   1.082       .  S
C2217      C2222   1.385   1_554  A
C2217      C2218   1.403       .  A
C2217      N2223   1.342       .  A
C2218      C2219   1.401       .  A
C2218      H2229   1.082       .  S
C2219      C2228   1.379       .  A
C2219      C2220   1.384   1_554  A
C2220      C2221   1.408       .  A
C2220      N2226   1.346       .  A
C2221      C2222   1.407       .  A
C2221      H2230   1.082       .  S
C2222      C2225   1.384       .  A
N2223      C2224   1.354       .  A
N2223      H2233   1.045       .  S
C2224      C2225   1.396   1_554  A
C2225      H2231   1.083       .  S
N2226      C2227   1.358       .  A
N2226      H2234   1.045       .  S
C2227      C2228   1.392   1_556  A
C2228      H2232   1.082       .  S
C2235      C2240   1.383       .  A
C2235      C2236   1.405       .  A
C2235      N2241   1.338       .  A
C2236      C2237   1.401       .  A
C2236      H2247   1.082       .  S
C2237      C2246   1.386       .  A
C2237      C2238   1.383       .  A
C2238      C2239   1.408       .  A
C2238      N2244   1.339       .  A
C2239      C2240   1.403       .  A
C2239      H2248   1.082       .  S
C2240      C2243   1.388       .  A
N2241      C2242   1.357       .  A
N2241      H2251   1.045       .  S
C2242      C2243   1.396       .  A
C2243      H2249   1.082       .  S
N2244      C2245   1.357       .  A
N2244      H2252   1.045       .  S
C2245      C2246   1.395       .  A
C2246      H2250   1.082       .  S
C2253      C2258   1.384       .  A
C2253      C2254   1.408       .  A
C2253      N2259   1.351       .  A
C2254      C2255   1.409       .  A
C2254      H2265   1.082       .  S
C2255      C2264   1.381       .  A
C2255      C2256   1.384       .  A
C2256      C2257   1.406       .  A
C2256      N2262   1.348       .  A
C2257      C2258   1.407       .  A
C2257      H2266   1.082       .  S
C2258      C2261   1.380       .  A
N2259      C2260   1.358       .  A
N2259      H2269   1.044       .  S
C2260      C2261   1.399       .  A
C2261      H2267   1.082       .  S
N2262      C2263   1.356       .  A
N2262      H2270   1.045       .  S
C2263      C2264   1.398       .  A
C2264      H2268   1.083       .  S
C2271      C2276   1.385       .  A
C2271      C2272   1.401       .  A
C2271      N2277   1.341       .  A
C2272      C2273   1.400       .  A
C2272      H2283   1.083       .  S
C2273      C2282   1.376       .  A
C2273      C2274   1.386       .  A
C2274      C2275   1.400       .  A
C2274      N2280   1.340       .  A
C2275      C2276   1.399       .  A
C2275      H2284   1.083       .  S
C2276      C2279   1.374       .  A
N2277      C2278   1.354       .  A
N2277      H2287   1.045       .  S
C2278      C2279   1.393       .  A
C2279      H2285   1.083       .  S
N2280      C2281   1.353       .  A
N2280      H2288   1.045       .  S
C2281      C2282   1.393       .  A
C2282      H2286   1.083       .  S
C2289      C2294   1.384   1_445  A
C2289      C2290   1.402   1_455  A
C2289      N2295   1.342       .  A
C2290      C2291   1.400       .  A
C2290      H2301   1.082       .  S
C2291      C2300   1.376       .  A
C2291      C2292   1.385       .  A
C2292      C2293   1.409       .  A
C2292      N2298   1.348       .  A
C2293      C2294   1.408   1_545  A
C2293      H2302   1.082   1_545  S
C2294      C2297   1.386   1_655  A
N2295      C2296   1.356   1_545  A
N2295      H2305   1.045       .  S
C2296      C2297   1.398       .  A
C2297      H2303   1.082       .  S
N2298      C2299   1.357       .  A
N2298      H2306   1.045       .  S
C2299      C2300   1.391       .  A
C2300      H2304   1.083       .  S
C2307      C2312   1.387       .  A
C2307      C2308   1.401       .  A
C2307      N2313   1.337       .  A
C2308      C2309   1.397   1_655  A
C2308      H2319   1.083       .  S
C2309      C2318   1.375       .  A
C2309      C2310   1.386       .  A
C2310      C2311   1.398       .  A
C2310      N2316   1.336       .  A
C2311      C2312   1.397   1_455  A
C2311      H2320   1.083       .  S
C2312      C2315   1.375       .  A
N2313      C2314   1.353       .  A
N2313      H2323   1.046       .  S
C2314      C2315   1.390       .  A
C2315      H2321   1.083       .  S
N2316      C2317   1.352       .  A
N2316      H2324   1.045       .  S
C2317      C2318   1.390       .  A
C2318      H2322   1.083       .  S
C2325      C2330   1.386       .  A
C2325      C2326   1.398       .  A
C2325      N2331   1.343       .  A
C2326      C2327   1.400       .  A
C2326      H2337   1.082       .  S
C2327      C2336   1.370       .  A
C2327      C2328   1.386       .  A
C2328      C2329   1.403       .  A
C2328      N2334   1.346       .  A
C2329      C2330   1.404       .  A
C2329      H2338   1.082       .  S
C2330      C2333   1.375       .  A
N2331      C2332   1.352       .  A
N2331      H2341   1.045       .  S
C2332      C2333   1.397       .  A
C2333      H2339   1.083       .  S
N2334      C2335   1.354       .  A
N2334      H2342   1.044       .  S
C2335      C2336   1.393       .  A
C2336      H2340   1.083       .  S
C2343      C2348   1.387       .  A
C2343      C2344   1.401       .  A
C2343      N2349   1.340       .  A
C2344      C2345   1.399       .  A
C2344      H2355   1.083       .  S
C2345      C2354   1.376       .  A
C2345      C2346   1.386       .  A
C2346      C2347   1.402       .  A
C2346      N2352   1.341       .  A
C2347      C2348   1.401       .  A
C2347      H2356   1.083       .  S
C2348      C2351   1.377       .  A
N2349      C2350   1.353       .  A
N2349      H2359   1.045       .  S
C2350      C2351   1.393       .  A
C2351      H2357   1.083       .  S
N2352      C2353   1.354       .  A
N2352      H2360   1.045       .  S
C2353      C2354   1.391       .  A
C2354      H2358   1.083       .  S
C2361      C2366   1.383       .  A
C2361      C2362   1.401       .  A
C2361      N2367   1.336       .  A
C2362      C2363   1.398       .  A
C2362      H2373   1.083       .  S
C2363      C2372   1.376       .  A
C2363      C2364   1.384       .  A
C2364      C2365   1.409       .  A
C2364      N2370   1.344       .  A
C2365      C2366   1.406       .  A
C2365      H2374   1.082       .  S
C2366      C2369   1.389       .  A
N2367      C2368   1.357       .  A
N2367      H2377   1.045       .  S
C2368      C2369   1.397       .  A
C2369      H2375   1.082       .  S
N2370      C2371   1.357       .  A
N2370      H2378   1.045       .  S
C2371      C2372   1.391       .  A
C2372      H2376   1.083       .  S
C2379      C2384   1.384       .  A
C2379      C2380   1.411       .  A
C2379      N2385   1.348   1_545  A
C2380      C2381   1.409       .  A
C2380      H2391   1.082       .  S
C2381      C2390   1.389       .  A
C2381      C2382   1.384       .  A
C2382      C2383   1.407   1_554  A
C2382      N2388   1.345   1_554  A
C2383      C2384   1.405   1_556  A
C2383      H2392   1.082       .  S
C2384      C2387   1.384   1_544  A
N2385      C2386   1.359       .  A
N2385      H2395   1.045       .  S
C2386      C2387   1.396   1_554  A
C2387      H2393   1.082       .  S
N2388      C2389   1.356   1_556  A
N2388      H2396   1.045       .  S
C2389      C2390   1.398       .  A
C2390      H2394   1.082       .  S
C2397      C2402   1.384   1_556  A
C2397      C2398   1.410       .  A
C2397      N2403   1.350       .  A
C2398      C2399   1.410       .  A
C2398      H2409   1.082       .  S
C2399      C2408   1.384       .  A
C2399      C2400   1.384   1_556  A
C2400      C2401   1.406       .  A
C2400      N2406   1.348       .  A
C2401      C2402   1.406       .  A
C2401      H2410   1.082       .  S
C2402      C2405   1.382       .  A
N2403      C2404   1.358   1_455  A
N2403      H2413   1.045   1_455  S
C2404      C2405   1.396   1_656  A
C2405      H2411   1.082       .  S
N2406      C2407   1.356   1_554  A
N2406      H2414   1.044       .  S
C2407      C2408   1.400       .  A
C2408      H2412   1.083       .  S
C2415      C2420   1.386       .  A
C2415      C2416   1.401       .  A
C2415      N2421   1.342       .  A
C2416      C2417   1.401       .  A
C2416      H2427   1.083       .  S
C2417      C2426   1.376       .  A
C2417      C2418   1.386       .  A
C2418      C2419   1.402       .  A
C2418      N2424   1.343       .  A
C2419      C2420   1.400       .  A
C2419      H2428   1.083       .  S
C2420      C2423   1.376       .  A
N2421      C2422   1.354       .  A
N2421      H2431   1.045       .  S
C2422      C2423   1.392       .  A
C2423      H2429   1.083       .  S
N2424      C2425   1.355       .  A
N2424      H2432   1.045       .  S
C2425      C2426   1.393       .  A
C2426      H2430   1.083       .  S
