geometry optimzed in LAMMPS
_audit_creation_date              2020-12-01 
_audit_creation_method            'lammps2cif' 
_symmetry_space_group_name_H-M    'P1' 
_symmetry_Int_Tables_number       1 
_symmetry_cell_setting            triclinic 
loop_ 
_symmetry_equiv_pos_as_xyz 
  x,y,z 
_cell_length_a                    28.38081197 
_cell_length_b                    46.79927367215393 
_cell_length_c                    26.69883347367073 
_cell_angle_alpha                 90.21415984400497 
_cell_angle_beta                  98.11454698165255 
_cell_angle_gamma                 89.69649228636848 
loop_ 
_atom_site_label 
_atom_site_type_symbol 
_atom_site_fract_x 
_atom_site_fract_y 
_atom_site_fract_z 
_atom_site_charge 
O1          O  0.30500887  0.57153604  0.65617104    -0.82400
C2          C  0.14569307  0.63573850  0.67479906     0.97000
O3          O  0.18336111  0.62765116  0.70155013    -0.71500
O4          O  0.25164212  0.59091071  0.73161413    -0.75100
Al5        Al  0.24315319  0.62177810  0.68080577     1.49000
C6          C  0.23570407  0.56545546  0.72917057     0.92200
O7          O  0.18070546  0.54770736  0.59413233    -0.81300
O8          O  0.19349945  0.58991354  0.52775329    -0.74900
Al9        Al  0.24064253  0.56382557  0.62535190     1.90100
O10         O  0.13099893  0.58340903  0.59689771    -0.73900
O11         O  0.21173492  0.64119963  0.56436403    -0.73800
O12         O  0.14297879  0.63617171  0.62710983    -0.79400
O13         O  0.23933384  0.65714203  0.64018989    -0.77600
O14         O  0.21936601  0.59926444  0.62971895    -1.13800
O15         O  0.30587139  0.61797327  0.66624158    -0.73000
C16         C  0.32773483  0.59449523  0.66656225     0.97800
C17         C  0.13846553  0.55729031  0.58975482     0.94100
Al18       Al  0.17371440  0.61190110  0.58284768     1.55600
O19         O  0.22208291  0.55400875  0.68698067    -0.77600
C20         C  0.23135001  0.66063745  0.59239761     0.98300
C21         C  0.23079686  0.57558752  0.52346455     0.93200
O22         O  0.26072265  0.57042581  0.56197617    -0.82900
O23         O  0.69214001  0.57075076  0.83823823    -0.82400
C24         C  0.84973474  0.63714362  0.83646795     0.97000
O25         O  0.81348499  0.62953874  0.80678997    -0.71500
O26         O  0.74511083  0.59474915  0.76881791    -0.75100
Al27       Al  0.75250725  0.62282441  0.82389973     1.49000
C28         C  0.76263376  0.56981657  0.76707322     0.92200
O29         O  0.81717755  0.54612010  0.89959280    -0.81300
O30         O  0.79815887  0.58454989  0.97259644    -0.74900
Al31       Al  0.75648801  0.56234968  0.86946896     1.90100
O32         O  0.86321319  0.58372859  0.90624511    -0.73900
O33         O  0.77675196  0.63766195  0.94362925    -0.73800
O34         O  0.84922396  0.63699989  0.88382533    -0.79400
O35         O  0.75510350  0.65627469  0.86850694    -0.77600
O36         O  0.77527581  0.59841999  0.87224605    -1.13800
O37         O  0.68924922  0.61766427  0.83584111    -0.73000
C38         C  0.66852866  0.59382285  0.83063651     0.97800
C39         C  0.85831700  0.55709850  0.90760601     0.94100
Al40       Al  0.81808511  0.60997315  0.92272428     1.55600
O41         O  0.77762301  0.55663410  0.80711603    -0.77600
C42         C  0.76033614  0.65838476  0.91650444     0.98300
C43         C  0.76279897  0.56812799  0.97282503     0.93200
O44         O  0.73414748  0.56425027  0.93282797    -0.82900
O45         O  0.73543591  0.44183660  0.43161369    -0.82400
C46         C  0.85350608  0.36786760  0.33709431     0.97000
O47         O  0.85380197  0.36942731  0.38451538    -0.71500
O48         O  0.86653375  0.42275432  0.40838822    -0.75100
Al49       Al  0.82132302  0.39619664  0.42331417     1.49000
C50         C  0.86068492  0.44927984  0.41139569     0.92200
O51         O  0.78307811  0.44912856  0.30768687    -0.81300
O52         O  0.69213817  0.38936030  0.33501986    -0.74900
Al53       Al  0.75985729  0.44382118  0.36937597     1.90100
O54         O  0.75028464  0.41101084  0.26930935    -0.73900
O55         O  0.75758029  0.34976065  0.36876803    -0.73800
O56         O  0.81694477  0.37507069  0.30742216    -0.79400
O57         O  0.78091316  0.36839854  0.44349970    -0.77600
O58         O  0.77874815  0.40758808  0.37244159    -1.13800
O59         O  0.79883145  0.42116182  0.47291321    -0.73000
C60         C  0.76231589  0.43699931  0.47254781     0.97800
C61         C  0.76862358  0.43563739  0.26759487     0.94100
Al62       Al  0.75595295  0.38307866  0.32410291     1.55600
O63         O  0.81931493  0.45999242  0.40224425    -0.77600
C64         C  0.76423843  0.34767052  0.41674596     0.98300
C65         C  0.67193292  0.41347535  0.32883076     0.93200
O66         O  0.69616871  0.43617238  0.33594936    -0.82900
O67         O  0.26369119  0.43956543  0.06553642    -0.82400
C68         C  0.14695889  0.37253264  0.17200361     0.97000
O69         O  0.14524725  0.37189367  0.12422084    -0.71500
O70         O  0.13270137  0.42378081  0.09153386    -0.75100
Al71       Al  0.17770077  0.39605209  0.08055775     1.49000
C72         C  0.13844054  0.44991351  0.08422315     0.92200
O73         O  0.21626033  0.45453898  0.18691549    -0.81300
O74         O  0.30702357  0.39227976  0.16779166    -0.74900
Al75       Al  0.23947067  0.44551452  0.12674131     1.90100
O76         O  0.24977271  0.41844014  0.23114226    -0.73900
O77         O  0.24238805  0.35177153  0.14148722    -0.73800
O78         O  0.18381020  0.38120606  0.19940144    -0.79400
O79         O  0.21814542  0.36692073  0.06455161    -0.77600
O80         O  0.22051613  0.40957772  0.12924809    -1.13800
O81         O  0.19999256  0.41826206  0.02667614    -0.73000
C82         C  0.23647330  0.43379670  0.02532431     0.97800
C83         C  0.23086313  0.44320138  0.22889620     0.94100
Al84       Al  0.24395884  0.38752846  0.18081211     1.55600
O85         O  0.17980526  0.46056376  0.09173330    -0.77600
C86         C  0.23616440  0.34762578  0.09390558     0.98300
C87         C  0.32765391  0.41615607  0.17073543     0.93200
O88         O  0.30366138  0.43893731  0.16128054    -0.82900
O89         O  0.76104482  0.94157879  0.06959867    -0.82400
C90         C  0.64338679  0.87121399  0.17013414     0.97000
O91         O  0.64248885  0.87201382  0.12256663    -0.71500
O92         O  0.63067229  0.92518779  0.09604340    -0.75100
Al93       Al  0.67487365  0.89741563  0.08179544     1.49000
C94         C  0.63703300  0.95162269  0.09254432     0.92200
O95         O  0.71709234  0.95226548  0.19437294    -0.81300
O96         O  0.80359787  0.88964032  0.16822836    -0.74900
Al97       Al  0.73849530  0.94511149  0.13245958     1.90100
O98         O  0.74861193  0.91437889  0.23441088    -0.73900
O99         O  0.73666907  0.85119223  0.13868510    -0.73800
O100        O  0.67970830  0.87938829  0.19910932    -0.79400
O101        O  0.71449600  0.86820871  0.06257785    -0.77600
O102        O  0.71821597  0.90925444  0.13154704    -1.13800
O103        O  0.69679350  0.92097585  0.03052720    -0.73000
C104        C  0.73290343  0.93672296  0.02959216     0.97800
C105        C  0.73141375  0.93944004  0.23502447     0.94100
Al106      Al  0.74048255  0.88544902  0.18105091     1.55600
O107        O  0.67871272  0.96182642  0.10053867    -0.77600
C108        C  0.73012069  0.84784367  0.09096215     0.98300
C109        C  0.82553092  0.91309798  0.17255654     0.93200
O110        O  0.80288387  0.93648971  0.16463417    -0.82900
O111        O  0.23296376  0.94145017  0.43376427    -0.82400
C112        C  0.35072635  0.86987906  0.33286697     0.97000
O113        O  0.35269261  0.87125909  0.38052759    -0.71500
O114        O  0.36385281  0.92437188  0.40712419    -0.75100
Al115      Al  0.31998707  0.89688804  0.42151538     1.49000
C116        C  0.35715408  0.95073751  0.41156139     0.92200
O117        O  0.27893175  0.95153602  0.30958566    -0.81300
O118        O  0.19022851  0.89027888  0.33536712    -0.74900
Al119      Al  0.25635204  0.94479547  0.37101753     1.90100
O120        O  0.24690471  0.91384293  0.26917842    -0.73900
O121        O  0.25609815  0.85084949  0.36567269    -0.73800
O122        O  0.31367726  0.87760308  0.30458638    -0.79400
O123        O  0.28107572  0.86801620  0.44114652    -0.77600
O124        O  0.27632503  0.90871256  0.37197331    -1.13800
O125        O  0.29741016  0.92067656  0.47284003    -0.73000
C126        C  0.26076629  0.93627061  0.47400457     0.97800
C127        C  0.26527116  0.93856880  0.26880727     0.94100
Al128      Al  0.25340427  0.88490486  0.32273008     1.55600
O129        O  0.31543105  0.96098998  0.40379932    -0.77600
C130        C  0.26394127  0.84776141  0.41345372     0.98300
C131        C  0.16906479  0.91407809  0.33030035     0.93200
O132        O  0.19241516  0.93709129  0.33755862    -0.82900
O133        O  0.18869191  0.07179062  0.84559822    -0.82400
C134        C  0.34722490  0.13693428  0.82970103     0.97000
O135        O  0.30995877  0.12841419  0.80275472    -0.71500
O136        O  0.24106274  0.09234898  0.77146903    -0.75100
Al137      Al  0.25022536  0.12228484  0.82389562     1.49000
C138        C  0.25765356  0.06701593  0.77198522     0.92200
O139        O  0.31393824  0.04707528  0.90602445    -0.81300
O140        O  0.30100833  0.08786313  0.97504392    -0.74900
Al141      Al  0.25354646  0.06361357  0.87570758     1.90100
O142        O  0.36301280  0.08292999  0.90476358    -0.73900
O143        O  0.28150576  0.14035781  0.94183034    -0.73800
O144        O  0.35022492  0.13639381  0.87754043    -0.79400
O145        O  0.25465308  0.15681681  0.86616962    -0.77600
O146        O  0.27446253  0.09909678  0.87348084    -1.13800
O147        O  0.18764715  0.11841302  0.83917990    -0.73000
C148        C  0.16576826  0.09500205  0.83747291     0.97800
C149        C  0.35603022  0.05675209  0.91126586     0.94100
Al150      Al  0.32005633  0.11114736  0.92099977     1.55600
O151        O  0.27192347  0.05472024  0.81319802    -0.77600
C152        C  0.26249065  0.16010854  0.91400601     0.98300
C153        C  0.26400489  0.07319301  0.97812284     0.93200
O154        O  0.23368490  0.06941620  0.93941490    -0.82900
O155        O  0.80064351  0.07094031  0.66678217    -0.82400
C156        C  0.63900141  0.13729693  0.66601154     0.97000
O157        O  0.67396764  0.12840277  0.69623264    -0.71500
O158        O  0.74021223  0.09213870  0.73388856    -0.75100
Al159      Al  0.73603124  0.12193613  0.68212721     1.49000
C160        C  0.72389267  0.06685203  0.73171770     0.92200
O161        O  0.67889546  0.04697456  0.59467169    -0.81300
O162        O  0.69953363  0.08811858  0.52876681    -0.74900
Al163      Al  0.73758605  0.06302012  0.63035592     1.90100
O164        O  0.63066865  0.08387098  0.59070079    -0.73900
O165        O  0.71613481  0.14010407  0.56389710    -0.73800
O166        O  0.64027479  0.13675879  0.61879125    -0.79400
O167        O  0.73543705  0.15662757  0.64102290    -0.77600
O168        O  0.71656522  0.09884630  0.63064764    -1.13800
O169        O  0.80028902  0.11759771  0.67391168    -0.73000
C170        C  0.82254724  0.09417709  0.67797282     0.97800
C171        C  0.63719086  0.05745257  0.58666147     0.94100
Al172      Al  0.67526515  0.11134999  0.57953853     1.55600
O173        O  0.71316739  0.05454263  0.68977610    -0.77600
C174        C  0.73147731  0.16005860  0.59334070     0.98300
C175        C  0.73660551  0.07286754  0.52862939     0.93200
O176        O  0.76349350  0.06792051  0.56947074    -0.82900
C177        C  0.38818733  0.14635776  0.80485498    -0.01900
C178        C  0.43124244  0.15415692  0.83382038    -0.09900
C179        C  0.47201601  0.15859338  0.81104561    -0.18700
C180        C  0.47128255  0.15489956  0.75827131     0.03700
C181        C  0.42677340  0.14905320  0.72858182     0.17900
C182        C  0.38583509  0.14508260  0.75191834    -0.20100
C183        C  0.42385089  0.14570980  0.67605127    -0.21400
C184        C  0.46474575  0.14603890  0.65276172    -0.19900
C185        C  0.50957802  0.14964848  0.68140666     0.19300
C186        C  0.51334285  0.15511991  0.73433593     0.01400
C187        C  0.55936044  0.15878073  0.76149025    -0.14700
C188        C  0.59983712  0.15460812  0.73820816    -0.12400
C189        C  0.59609018  0.14725275  0.68687985     0.00900
C190        C  0.55081877  0.14614102  0.65809087    -0.24600
H191        H  0.43395608  0.15580582  0.87459271     0.08900
H192        H  0.50396285  0.16393554  0.83614460     0.12500
H193        H  0.35258187  0.13947237  0.72885964     0.11200
H194        H  0.38990637  0.14171300  0.65306793     0.12400
H195        H  0.46143115  0.14226774  0.61229586     0.11400
H196        H  0.56545707  0.16369807  0.80141247     0.08500
H197        H  0.63442085  0.15612162  0.76109036     0.11800
H198        H  0.54755649  0.14051879  0.61825282     0.13600
C199        C  0.11352948  0.09484575  0.82171952    -0.01900
C200        C  0.08824771  0.12069324  0.81597920    -0.09900
C201        C  0.04064422  0.12142363  0.79400998    -0.18700
C202        C  0.01658074  0.09613244  0.77636886     0.03700
C203        C  0.04165233  0.06979443  0.78432171     0.17900
C204        C  0.08953127  0.06935455  0.80706684    -0.20100
C205        C  0.01918757  0.04412118  0.76825964    -0.21400
C206        C  0.97247679  0.04403526  0.74381540    -0.19900
C207        C  0.94708064  0.06964642  0.73447805     0.19300
C208        C  0.96883167  0.09607649  0.75060823     0.01400
C209        C  0.94204665  0.12137352  0.73966161    -0.14700
C210        C  0.89557041  0.12042842  0.71462591    -0.12400
C211        C  0.87371705  0.09437989  0.69955242     0.00900
C212        C  0.89992228  0.06899636  0.70932192    -0.24600
H213        H  0.10570644  0.14070622  0.82731948     0.08900
H214        H  0.02409745  0.14215531  0.79067203     0.12500
H215        H  0.10866768  0.04921837  0.81132420     0.11200
H216        H  0.03801100  0.02394725  0.77429582     0.12400
H217        H  0.95623341  0.02379938  0.73177099     0.11400
H218        H  0.95578737  0.14224222  0.74994045     0.08500
H219        H  0.87633597  0.14042822  0.70791582     0.11800
H220        H  0.88342513  0.04870705  0.69813235     0.13600
C221        C  0.39800949  0.96875831  0.43117787    -0.01900
C222        C  0.39077753  0.99550541  0.45238402    -0.09900
C223        C  0.42876012  0.01028054  0.47935069    -0.18700
C224        C  0.47533071  0.99857393  0.48601968     0.03700
C225        C  0.48277217  0.97215786  0.46193506     0.17900
C226        C  0.44429031  0.95756294  0.43500162    -0.20100
C227        C  0.52842211  0.96018395  0.46558337    -0.21400
C228        C  0.56717768  0.97402420  0.49258996    -0.19900
C229        C  0.56098570  0.99981783  0.51751376     0.19300
C230        C  0.51479392  0.01217959  0.51537706     0.01400
C231        C  0.51008135  0.03759120  0.54287846    -0.14700
C232        C  0.54985905  0.05112279  0.56853730    -0.12400
C233        C  0.59559332  0.03980301  0.56800863     0.00900
C234        C  0.60086782  0.01369142  0.54370097    -0.24600
H235        H  0.35531438  0.00455301  0.44994836     0.08900
H236        H  0.42036243  0.03066549  0.49482600     0.12500
H237        H  0.45024280  0.93692102  0.41829613     0.11200
H238        H  0.53423584  0.94004838  0.44715629     0.12400
H239        H  0.60220617  0.96443528  0.49414507     0.11400
H240        H  0.47625965  0.04773525  0.54498681     0.08500
H241        H  0.54483046  0.07113747  0.58768974     0.11800
H242        H  0.63618803  0.00483638  0.54312671     0.13600
C243        C  0.25446266  0.95159422  0.52139203    -0.01900
C244        C  0.28855323  0.94821027  0.56428601    -0.09900
C245        C  0.28980625  0.96668325  0.60549923    -0.18700
C246        C  0.25687262  0.98949014  0.60527021     0.03700
C247        C  0.22018755  0.99170250  0.56336373     0.17900
C248        C  0.21931999  0.97287097  0.52190371    -0.20100
C249        C  0.18543979  0.01316528  0.56260841    -0.21400
C250        C  0.18663356  0.03264816  0.60243778    -0.19900
C251        C  0.22320425  0.03159029  0.64355021     0.19300
C252        C  0.25915793  0.01013670  0.64510983     0.01400
C253        C  0.29630727  0.01043444  0.68625796    -0.14700
C254        C  0.29636078  0.03005019  0.72548548    -0.12400
C255        C  0.25991979  0.05034663  0.72524210     0.00900
C256        C  0.22385740  0.05152647  0.68354868    -0.24600
H257        H  0.31588748  0.93189733  0.56528181     0.08900
H258        H  0.31745878  0.96268698  0.63666783     0.12500
H259        H  0.19254217  0.97567803  0.48906454     0.11200
H260        H  0.15713477  0.01491093  0.53095675     0.12400
H261        H  0.15901621  0.04883929  0.60081676     0.11400
H262        H  0.32585609  0.99572418  0.68952521     0.08500
H263        H  0.32485512  0.02892393  0.75707061     0.11800
H264        H  0.19536206  0.06707633  0.68326342     0.13600
C265        C  0.26846555  0.95397236  0.22124981    -0.01900
C266        C  0.23276875  0.95145250  0.17970197    -0.09900
C267        C  0.23047278  0.97064909  0.13931102    -0.18700
C268        C  0.26414704  0.99293848  0.13944702     0.03700
C269        C  0.30253896  0.99372291  0.17977253     0.17900
C270        C  0.30413500  0.97450609  0.22015958    -0.20100
C271        C  0.33838090  0.01421478  0.18037008    -0.21400
C272        C  0.33661706  0.03432268  0.14195980    -0.19900
C273        C  0.29830975  0.03492574  0.10274788     0.19300
C274        C  0.26113409  0.01451350  0.10131779     0.01400
C275        C  0.22220672  0.01691882  0.06227410    -0.14700
C276        C  0.22161263  0.03758128  0.02463581    -0.12400
C277        C  0.25972702  0.05652605  0.02435472     0.00900
C278        C  0.29739330  0.05553661  0.06441644    -0.24600
H279        H  0.20505573  0.93562243  0.17969778     0.08900
H280        H  0.20158684  0.96777464  0.10891083     0.12500
H281        H  0.33239941  0.97620353  0.25192856     0.11200
H282        H  0.36797874  0.01471992  0.21083215     0.12400
H283        H  0.36511608  0.04976101  0.14330796     0.11400
H284        H  0.19180007  0.00300707  0.05958671     0.08500
H285        H  0.19193313  0.03784474  0.99429571     0.11800
H286        H  0.32712737  0.07002953  0.06469473     0.13600
C287        C  0.59544994  0.96963468  0.07381061    -0.01900
C288        C  0.54960081  0.95944616  0.07672350    -0.09900
C289        C  0.50967763  0.97265937  0.05008303    -0.18700
C290        C  0.51435929  0.99651688  0.01894528     0.03700
C291        C  0.56072963  0.00790882  0.01861695     0.17900
C292        C  0.60071507  0.99447080  0.04602821    -0.20100
C293        C  0.56699300  0.03218596  0.98987810    -0.21400
C294        C  0.52815869  0.04547638  0.96156362    -0.19900
C295        C  0.48224432  0.03445833  0.96041845     0.19300
C296        C  0.47472947  0.00949367  0.98828061     0.01400
C297        C  0.42789718  0.99855324  0.98396522    -0.14700
C298        C  0.38977629  0.01289747  0.95589477    -0.12400
C299        C  0.39701062  0.03848980  0.93119291     0.00900
C300        C  0.44358057  0.04866918  0.93241352    -0.24600
H301        H  0.54462215  0.94044552  0.09842281     0.08900
H302        H  0.47575441  0.96343738  0.05414631     0.12500
H303        H  0.63610147  0.00242699  0.04341491     0.11200
H304        H  0.60215435  0.04102164  0.98943715     0.12400
H305        H  0.53411269  0.06445888  0.94022985     0.11400
H306        H  0.41942311  0.97917107  0.00230279     0.08500
H307        H  0.35417528  0.00458041  0.95556101     0.11800
H308        H  0.44961670  0.06834828  0.91301880     0.13600
C309        C  0.71964533  0.05009974  0.77769385    -0.01900
C310        C  0.69198598  0.02523847  0.77316680    -0.09900
C311        C  0.69357573  0.00605965  0.81303351    -0.18700
C312        C  0.72345887  0.01094712  0.85912245     0.03700
C313        C  0.74903389  0.03712195  0.86488894     0.17900
C314        C  0.74680496  0.05648398  0.82431742    -0.20100
C315        C  0.77769047  0.04339381  0.91062983    -0.21400
C316        C  0.78202810  0.02405493  0.95051824    -0.19900
C317        C  0.75830195  0.99780506  0.94544916     0.19300
C318        C  0.72891426  0.99077039  0.89953970     0.01400
C319        C  0.70646924  0.96375217  0.89599998    -0.14700
C320        C  0.71065412  0.94531700  0.93730776    -0.12400
C321        C  0.73782634  0.95287857  0.98320147     0.00900
C322        C  0.76279041  0.97881001  0.98650968    -0.24600
H323        H  0.66987912  0.02006488  0.73784133     0.08900
H324        H  0.67148053  0.98743203  0.80618196     0.12500
H325        H  0.76805000  0.07574610  0.82825576     0.11200
H326        H  0.79703257  0.06333423  0.91552238     0.12400
H327        H  0.80433306  0.02961763  0.98553357     0.11400
H328        H  0.68477184  0.95635258  0.86214086     0.08500
H329        H  0.69108270  0.92542609  0.93381471     0.11800
H330        H  0.78360618  0.98502972  0.02206836     0.13600
C331        C  0.74395616  0.05713707  0.48210545    -0.01900
C332        C  0.78061515  0.03682954  0.48293751    -0.09900
C333        C  0.78027184  0.01675318  0.44391505    -0.18700
C334        C  0.74274219  0.01621450  0.40298599     0.03700
C335        C  0.70769476  0.03819840  0.40068294     0.17900
C336        C  0.70887199  0.05840627  0.43966840    -0.20100
C337        C  0.67052907  0.03937088  0.36036729    -0.21400
C338        C  0.66723657  0.01911735  0.32205204    -0.19900
C339        C  0.70063428  0.99696303  0.32352579     0.19300
C340        C  0.73847247  0.99476492  0.36432704     0.01400
C341        C  0.76995425  0.97111843  0.36454681    -0.14700
C342        C  0.76577890  0.95168340  0.32411292    -0.12400
C343        C  0.73028540  0.95532901  0.28259302     0.00900
C344        C  0.69694999  0.97739670  0.28348890    -0.24600
H345        H  0.80841942  0.03548735  0.51511319     0.08900
H346        H  0.80918384  0.00152511  0.44740148     0.12500
H347        H  0.68047150  0.07410547  0.43832903     0.11200
H348        H  0.64373544  0.05607808  0.35846708     0.12400
H349        H  0.63826134  0.02076750  0.29104918     0.11400
H350        H  0.79852968  0.96738204  0.39497070     0.08500
H351        H  0.79183553  0.93468014  0.32412825     0.11800
H352        H  0.66889460  0.98001197  0.25171787     0.13600
C353        C  0.39252856  0.86068795  0.30922459    -0.01900
C354        C  0.38812180  0.85758797  0.25649710    -0.09900
C355        C  0.42812995  0.85414307  0.23220954    -0.18700
C356        C  0.47435165  0.85403535  0.25989508     0.03700
C357        C  0.47854266  0.85533987  0.31363460     0.17900
C358        C  0.43777559  0.85834610  0.33773410    -0.20100
C359        C  0.52353258  0.85517506  0.34283840    -0.21400
C360        C  0.56451446  0.85556283  0.31982751    -0.19900
C361        C  0.56147440  0.85602473  0.26703422     0.19300
C362        C  0.51648139  0.85426842  0.23621020     0.01400
C363        C  0.51564020  0.85430200  0.18305258    -0.14700
C364        C  0.55724396  0.85824170  0.16160518    -0.12400
C365        C  0.60102630  0.86195669  0.19227922     0.00900
C366        C  0.60307682  0.85965259  0.24494336    -0.24600
H367        H  0.35356346  0.85894042  0.23349743     0.08900
H368        H  0.42164088  0.85268841  0.19145928     0.12500
H369        H  0.44161786  0.86063146  0.37858815     0.11200
H370        H  0.52706284  0.85581573  0.38381918     0.12400
H371        H  0.59878141  0.85649299  0.34350315     0.11400
H372        H  0.48319657  0.85227345  0.15690742     0.08500
H373        H  0.55473904  0.85959957  0.12082601     0.11800
H374        H  0.63690631  0.86208361  0.26909188     0.13600
C375        C  0.87728656  0.91286988  0.19133414    -0.01900
C376        C  0.89894666  0.88738830  0.21026739    -0.09900
C377        C  0.94587932  0.88694949  0.23396371    -0.18700
C378        C  0.97331333  0.91214081  0.23952543     0.03700
C379        C  0.95222392  0.93774580  0.21805409     0.17900
C380        C  0.90444219  0.93797877  0.19469166    -0.20100
C381        C  0.97888615  0.96294493  0.22048592    -0.21400
C382        C  0.02599564  0.96325079  0.24387891    -0.19900
C383        C  0.04733724  0.93853166  0.26645364     0.19300
C384        C  0.02100756  0.91271722  0.26521639     0.01400
C385        C  0.04349409  0.88858926  0.29000369    -0.14700
C386        C  0.09076439  0.88961225  0.31268609    -0.12400
C387        C  0.11731410  0.91469430  0.31208833     0.00900
C388        C  0.09506177  0.93930500  0.28974112    -0.24600
H389        H  0.87908686  0.86761426  0.20812115     0.08900
H390        H  0.95956631  0.86644892  0.24749080     0.12500
H391        H  0.88822290  0.95779152  0.17983956     0.11200
H392        H  0.96327914  0.98252006  0.20393331     0.12400
H393        H  0.04578973  0.98303611  0.24461924     0.11400
H394        H  0.02563020  0.86848930  0.29250369     0.08500
H395        H  0.10688919  0.87039882  0.33013630     0.11800
H396        H  0.11532690  0.95885139  0.28898573     0.13600
C397        C  0.25251691  0.18766221  0.93838606    -0.01900
C398        C  0.24948803  0.21315959  0.91095368    -0.09900
C399        C  0.24759367  0.23953140  0.93551120    -0.18700
C400        C  0.24846074  0.24122801  0.98867257     0.03700
C401        C  0.24779378  0.21525838  0.01579878     0.17900
C402        C  0.25040335  0.18888824  0.99073238    -0.20100
C403        C  0.24526245  0.21579187  0.06788662    -0.21400
C404        C  0.24368494  0.24167164  0.09369305    -0.19900
C405        C  0.24620548  0.26769379  0.06850140     0.19300
C406        C  0.24964021  0.26772640  0.01576521     0.01400
C407        C  0.25491483  0.29428674  0.99248119    -0.14700
C408        C  0.25355287  0.31976218  0.01936752    -0.12400
C409        C  0.24697270  0.31994899  0.07047776     0.00900
C410        C  0.24466295  0.29372680  0.09533893    -0.24600
H411        H  0.25046154  0.21282554  0.87053007     0.08900
H412        H  0.24554388  0.25819551  0.91188576     0.12500
H413        H  0.25171909  0.16926224  0.01226369     0.11200
H414        H  0.24423961  0.19606537  0.08873633     0.12400
H415        H  0.24110608  0.24130509  0.13384270     0.11400
H416        H  0.26014105  0.29612111  0.95341943     0.08500
H417        H  0.25635891  0.33965157  0.99939818     0.11800
H418        H  0.23969677  0.29357663  0.13489534     0.13600
C419        C  0.74146091  0.18787606  0.57048630    -0.01900
C420        C  0.74744973  0.21293779  0.59940738    -0.09900
C421        C  0.75112517  0.23947791  0.57613280    -0.18700
C422        C  0.74871314  0.24180076  0.52284542     0.03700
C423        C  0.74339777  0.21621378  0.49393439     0.17900
C424        C  0.74026853  0.18977772  0.51779623    -0.18500
C425        C  0.74028808  0.21710371  0.44113749    -0.21400
C426        C  0.74199714  0.24299198  0.41613234    -0.19900
C427        C  0.74718037  0.26868018  0.44322410     0.19300
C428        C  0.75091291  0.26845318  0.49704126     0.01400
C429        C  0.75683172  0.29491936  0.52255093    -0.14700
C430        C  0.75932730  0.32035771  0.49601315    -0.12400
C431        C  0.75588243  0.32057622  0.44298375     0.00900
C432        C  0.74935570  0.29457483  0.41682493    -0.24600
H433        H  0.74796566  0.21214091  0.64001304     0.08900
H434        H  0.75494618  0.25785921  0.60087124     0.12500
H435        H  0.73560855  0.17057370  0.49479481     0.11200
H436        H  0.73615033  0.19761670  0.41894993     0.12400
H437        H  0.73932709  0.24289907  0.37517988     0.11400
H438        H  0.76031799  0.29669925  0.56327322     0.08500
H439        H  0.76479680  0.34002679  0.51745855     0.11800
H440        H  0.74738087  0.29436265  0.37589580     0.13600
C441        C  0.37945642  0.41727232  0.18920313    -0.01900
C442        C  0.40296997  0.44339028  0.19912767    -0.09900
C443        C  0.45051182  0.44417407  0.22206714    -0.18700
C444        C  0.47607476  0.41868513  0.23615364     0.03700
C445        C  0.45227875  0.39230867  0.22468395     0.17900
C446        C  0.40480383  0.39186116  0.20139883    -0.20100
C447        C  0.47565970  0.36638647  0.23722107    -0.21400
C448        C  0.52234075  0.36596629  0.26115701    -0.19900
C449        C  0.54681587  0.39146719  0.27338045     0.19300
C450        C  0.52415566  0.41825339  0.26128191     0.01400
C451        C  0.55070337  0.44328839  0.27498602    -0.14700
C452        C  0.59796111  0.44168547  0.29847597    -0.12400
C453        C  0.62035514  0.41518239  0.30932112     0.00900
C454        C  0.59417399  0.39019333  0.29715664    -0.24600
H455        H  0.38424462  0.46336231  0.19022228     0.08900
H456        H  0.46606852  0.46503399  0.22884669     0.12500
H457        H  0.38714276  0.37147741  0.19395920     0.11200
H458        H  0.45764507  0.34622449  0.22854205     0.12400
H459        H  0.53942401  0.34550688  0.27022920     0.11400
H460        H  0.53610976  0.46440253  0.26763029     0.08500
H461        H  0.61734470  0.46136856  0.30724668     0.11800
H462        H  0.61103013  0.36955093  0.30511862     0.13600
C463        C  0.89716477  0.35955337  0.31590381    -0.01900
C464        C  0.94150517  0.35999254  0.34647650    -0.09900
C465        C  0.98361038  0.35802844  0.32511274    -0.18700
C466        C  0.98274616  0.35576602  0.27206981     0.03700
C467        C  0.93765039  0.35344953  0.24158463     0.17900
C468        C  0.89557635  0.35511832  0.26365384    -0.20100
C469        C  0.93468449  0.35092100  0.18894690    -0.21400
C470        C  0.97544727  0.35217481  0.16557021    -0.19900
C471        C  0.02025755  0.35585182  0.19420347     0.19300
C472        C  0.02467279  0.35696726  0.24798850     0.01400
C473        C  0.07069953  0.36038325  0.27514725    -0.14700
C474        C  0.11011882  0.36405429  0.25010775    -0.12400
C475        C  0.10548197  0.36431021  0.19704349     0.00900
C476        C  0.06048025  0.35943172  0.16932623    -0.24600
H477        H  0.94380204  0.36335916  0.38690837     0.08900
H478        H  0.01628086  0.35937729  0.35111165     0.12500
H479        H  0.86142620  0.35448764  0.23962273     0.11200
H480        H  0.90043432  0.34884322  0.16554150     0.12400
H481        H  0.97173483  0.35099149  0.12461197     0.11400
H482        H  0.07743093  0.36100904  0.31597946     0.08500
H483        H  0.14439708  0.36754101  0.27270426     0.11800
H484        H  0.05634658  0.35960443  0.12827080     0.13600
C485        C  0.73750831  0.81960911  0.06761417    -0.01900
C486        C  0.74045455  0.79454890  0.09640902    -0.09900
C487        C  0.74242577  0.76772316  0.07332682    -0.18700
C488        C  0.74178250  0.76508363  0.02031920     0.03700
C489        C  0.73976628  0.79063203  0.99149480     0.17900
C490        C  0.73743396  0.81738640  0.01512745    -0.20100
C491        C  0.73987995  0.78941266  0.93909476    -0.21400
C492        C  0.74228019  0.76330106  0.91455284    -0.19900
C493        C  0.74411494  0.73768611  0.94159652     0.19300
C494        C  0.74345601  0.73815693  0.99484869     0.01400
C495        C  0.74481200  0.71164647  0.02017115    -0.14700
C496        C  0.74847235  0.68596208  0.99415778    -0.12400
C497        C  0.75047659  0.68561211  0.94192766     0.00900
C498        C  0.74741842  0.71160372  0.91577008    -0.24600
H499        H  0.74002004  0.79561081  0.13688495     0.08900
H500        H  0.74428076  0.74947451  0.09799087     0.12500
H501        H  0.73510710  0.83659070  0.99235076     0.11200
H502        H  0.73837903  0.80881584  0.91696234     0.12400
H503        H  0.74277713  0.76316389  0.87397573     0.11400
H504        H  0.74363362  0.71001401  0.06028154     0.08500
H505        H  0.75052738  0.66621278  0.01536365     0.11800
H506        H  0.74924383  0.71163836  0.87541190     0.13600
C507        C  0.76363773  0.55436096  0.71902532    -0.01900
C508        C  0.72616635  0.55647937  0.67908453    -0.09900
C509        C  0.72264307  0.53702371  0.63863315    -0.18700
C510        C  0.75674644  0.51485449  0.63727410     0.03700
C511        C  0.79582822  0.51395888  0.67691051     0.17900
C512        C  0.79894241  0.53360323  0.71680166    -0.20100
C513        C  0.83115322  0.49298799  0.67746612    -0.21400
C514        C  0.82869972  0.47267996  0.63931786    -0.19900
C515        C  0.79077739  0.47277767  0.59976979     0.19300
C516        C  0.75388157  0.49360675  0.59825199     0.01400
C517        C  0.71621449  0.49228680  0.55751386    -0.14700
C518        C  0.71707996  0.47244161  0.51828555    -0.12400
C519        C  0.75504150  0.45306096  0.51876455     0.00900
C520        C  0.79068254  0.45268987  0.56072448    -0.24600
H521        H  0.69824084  0.57222419  0.68042840     0.08900
H522        H  0.69243353  0.53948337  0.60960263     0.12500
H523        H  0.82819266  0.53200706  0.74758635     0.11200
H524        H  0.86095804  0.49227984  0.70768268     0.12400
H525        H  0.85690499  0.45687097  0.64059709     0.11400
H526        H  0.68631430  0.50679739  0.55422849     0.08500
H527        H  0.68891598  0.47312724  0.48638438     0.11800
H528        H  0.82022249  0.43780509  0.56166416     0.13600
C529        C  0.75920729  0.55023374  0.01779433    -0.01900
C530        C  0.72204280  0.53058453  0.01770741    -0.09900
C531        C  0.72319287  0.51005299  0.05583029    -0.18700
C532        C  0.76196386  0.50838740  0.09534801     0.03700
C533        C  0.79893924  0.52883680  0.09581472     0.17900
C534        C  0.79714836  0.54941108  0.05752084    -0.20100
C535        C  0.83792421  0.52850770  0.13421953    -0.21400
C536        C  0.84043478  0.50881368  0.17322080    -0.19900
C537        C  0.80437504  0.48867673  0.17435787     0.19300
C538        C  0.76520036  0.48755739  0.13482826     0.01400
C539        C  0.73086193  0.46588996  0.13715354    -0.14700
C540        C  0.73373834  0.44749670  0.17876478    -0.12400
C541        C  0.77066920  0.45023308  0.21910342     0.00900
C542        C  0.80659190  0.47024048  0.21585143    -0.24600
H543        H  0.69253733  0.53049299  0.98717181     0.08900
H544        H  0.69343059  0.49564670  0.05310681     0.12500
H545        H  0.82648715  0.56419244  0.05774879     0.11200
H546        H  0.86640308  0.54388176  0.13450499     0.12400
H547        H  0.87059706  0.50952970  0.20302068     0.11400
H548        H  0.70090313  0.46303378  0.10798456     0.08500
H549        H  0.70560037  0.43214658  0.18064686     0.11800
H550        H  0.83559011  0.47217467  0.24681715     0.13600
C551        C  0.90105868  0.53965940  0.92404044    -0.01900
C552        C  0.94562352  0.55300517  0.93178224    -0.09900
C553        C  0.98521478  0.53911782  0.95727947    -0.18700
C554        C  0.98161859  0.51118636  0.97587835     0.03700
C555        C  0.93741125  0.49674567  0.96396608     0.17900
C556        C  0.89748674  0.51113134  0.93859548    -0.20100
C557        C  0.93317264  0.46829844  0.97850115    -0.21400
C558        C  0.97181614  0.45400372  0.00514118    -0.19900
C559        C  0.01503542  0.46814671  0.01935819     0.19300
C560        C  0.02037704  0.49708732  0.00568289     0.01400
C561        C  0.06400228  0.51079867  0.02320124    -0.14700
C562        C  0.10168724  0.49586318  0.05068831    -0.12400
C563        C  0.09693317  0.46697603  0.06196053     0.00900
C564        C  0.05313442  0.45342981  0.04698414    -0.24600
H565        H  0.94967637  0.57485450  0.91988073     0.08900
H566        H  0.01808080  0.55092512  0.96208755     0.12500
H567        H  0.86325632  0.50051641  0.93221879     0.11200
H568        H  0.89980337  0.45702198  0.96911772     0.12400
H569        H  0.96763151  0.43186985  0.01545351     0.11400
H570        H  0.07012103  0.53308329  0.01642129     0.08500
H571        H  0.13500096  0.50682113  0.06216779     0.11800
H572        H  0.04889868  0.43104011  0.05569073     0.13600
C573        C  0.25627266  0.82000234  0.43808153    -0.01900
C574        C  0.24586706  0.79508519  0.40960782    -0.09900
C575        C  0.24355027  0.76860068  0.43344610    -0.18700
C576        C  0.25164948  0.76613410  0.48695002     0.03700
C577        C  0.26110158  0.79154828  0.51564983     0.17900
C578        C  0.26341728  0.81796179  0.49121813    -0.20100
C579        C  0.26839111  0.79049073  0.56865460    -0.21400
C580        C  0.26568308  0.76470766  0.59396494    -0.19900
C581        C  0.25634651  0.73918465  0.56700177     0.19300
C582        C  0.25015054  0.73951825  0.51305373     0.01400
C583        C  0.24260649  0.71317282  0.48755608    -0.14700
C584        C  0.23884032  0.68792047  0.51407807    -0.12400
C585        C  0.24233774  0.68765709  0.56713240     0.00900
C586        C  0.25232035  0.71338945  0.59352322    -0.24600
H587        H  0.24043087  0.79594340  0.36866002     0.08900
H588        H  0.23532137  0.75045821  0.40886162     0.12500
H589        H  0.27147879  0.83703036  0.51393198     0.11200
H590        H  0.27576913  0.80982769  0.59075263     0.12400
H591        H  0.27081201  0.76475820  0.63499226     0.11400
H592        H  0.23910881  0.71131882  0.44693411     0.08500
H593        H  0.23206332  0.66840135  0.49239999     0.11800
H594        H  0.25545690  0.71352921  0.63449710     0.13600
C595        C  0.23404626  0.54742652  0.77451807    -0.01900
C596        C  0.20519082  0.52302016  0.76941577    -0.09900
C597        C  0.20681804  0.50305043  0.80802368    -0.18700
C598        C  0.23754199  0.50663096  0.85385586     0.03700
C599        C  0.26555352  0.53193625  0.86005291     0.17900
C600        C  0.26361677  0.55208170  0.82047128    -0.20100
C601        C  0.29556888  0.53675541  0.90554550    -0.21400
C602        C  0.29798069  0.51719769  0.94503854    -0.19900
C603        C  0.27086189  0.49213958  0.93991840     0.19300
C604        C  0.24079024  0.48623430  0.89398220     0.01400
C605        C  0.21478387  0.46034754  0.89058038    -0.14700
C606        C  0.21577971  0.44226190  0.93224988    -0.12400
C607        C  0.24349221  0.44895712  0.97829725     0.00900
C608        C  0.27234505  0.47342552  0.98115574    -0.24600
H609        H  0.18154780  0.51894772  0.73462788     0.08900
H610        H  0.18347780  0.48493238  0.80056400     0.12500
H611        H  0.28618770  0.57081760  0.82484115     0.11200
H612        H  0.31703165  0.55590547  0.91078440     0.12400
H613        H  0.32102946  0.52182249  0.98006136     0.11400
H614        H  0.19230989  0.45372420  0.85654493     0.08500
H615        H  0.19340542  0.42347971  0.92893051     0.11800
H616        H  0.29394955  0.47896948  0.01667438     0.13600
C617        C  0.23575728  0.56119513  0.47502590    -0.01900
C618        C  0.19948529  0.56357164  0.43384726    -0.09900
C619        C  0.19762086  0.54492087  0.39271673    -0.18700
C620        C  0.23199299  0.52299038  0.39168043     0.03700
C621        C  0.27072298  0.52210961  0.43166586     0.17900
C622        C  0.27233834  0.54114512  0.47264095    -0.20100
C623        C  0.30681212  0.50162094  0.43138613    -0.21400
C624        C  0.30498720  0.48165047  0.39247166    -0.19900
C625        C  0.26653839  0.48130059  0.35341673     0.19300
C626        C  0.22923372  0.50183425  0.35268478     0.01400
C627        C  0.19052577  0.50006192  0.31325671    -0.14700
C628        C  0.19026763  0.47987288  0.27475617    -0.12400
C629        C  0.22797006  0.46046983  0.27457340     0.00900
C630        C  0.26550578  0.46079743  0.31459503    -0.24600
H631        H  0.17101758  0.57902976  0.43442881     0.08900
H632        H  0.16827733  0.54788006  0.36282675     0.12500
H633        H  0.30084163  0.53920439  0.50410448     0.11200
H634        H  0.33660189  0.50095248  0.46163046     0.12400
H635        H  0.33360489  0.46616646  0.39323004     0.11400
H636        H  0.16007827  0.51411089  0.31078742     0.08500
H637        H  0.16078621  0.47982483  0.24415208     0.11800
H638        H  0.29499477  0.44599762  0.31423916     0.13600
C639        C  0.37963655  0.59374481  0.68359512    -0.01900
C640        C  0.40398135  0.56762848  0.69029106    -0.09900
C641        C  0.45108520  0.56651877  0.71395598    -0.18700
C642        C  0.47536184  0.59165319  0.73204408     0.03700
C643        C  0.45134195  0.61822649  0.72247508     0.17900
C644        C  0.40407262  0.61902564  0.69855557    -0.20100
C645        C  0.47426164  0.64385300  0.73776505    -0.21400
C646        C  0.52062597  0.64368907  0.76273634    -0.19900
C647        C  0.54485405  0.61787093  0.77391618     0.19300
C648        C  0.52245878  0.59143516  0.75929505     0.01400
C649        C  0.54803396  0.56598277  0.77315292    -0.14700
C650        C  0.59455687  0.56681679  0.79844976    -0.12400
C651        C  0.61713257  0.59294906  0.81090542     0.00900
C652        C  0.59164239  0.61838664  0.79925375    -0.24600
H653        H  0.38609769  0.54780412  0.67866689     0.08900
H654        H  0.46732148  0.54562910  0.71798985     0.12500
H655        H  0.38576672  0.63942551  0.69318485     0.11200
H656        H  0.45618660  0.66418391  0.73036349     0.12400
H657        H  0.53751699  0.66391380  0.77380000     0.11400
H658        H  0.53316668  0.54506417  0.76483461     0.08500
H659        H  0.61336092  0.54684480  0.80704997     0.11800
H660        H  0.60864881  0.63878185  0.80878555     0.13600
C661        C  0.10385736  0.64320445  0.69961901    -0.01900
C662        C  0.10828286  0.64528949  0.75247825    -0.09900
C663        C  0.06812363  0.64790024  0.77690783    -0.18700
C664        C  0.02188578  0.64820918  0.74912778     0.03700
C665        C  0.01779963  0.64760928  0.69537996     0.17900
C666        C  0.05853526  0.64520690  0.67128920    -0.20100
C667        C  0.97297973  0.64851191  0.66595026    -0.21400
C668        C  0.93190071  0.64924453  0.68866688    -0.19900
C669        C  0.93462535  0.64862552  0.74139779     0.19300
C670        C  0.97958185  0.64830831  0.77255134     0.01400
C671        C  0.98005049  0.64694710  0.82560047    -0.14700
C672        C  0.93773739  0.64492537  0.84652623    -0.12400
C673        C  0.89365834  0.64442884  0.81543603     0.00900
C674        C  0.89244829  0.64707976  0.76298316    -0.24600
H675        H  0.14296127  0.64409943  0.77527277     0.08900
H676        H  0.07447048  0.64911828  0.81768689     0.12500
H677        H  0.05468555  0.64359519  0.63033185     0.11200
H678        H  0.96961720  0.64821466  0.62496071     0.12400
H679        H  0.89771173  0.64951121  0.66478615     0.11400
H680        H  0.01258109  0.64638188  0.85189711     0.08500
H681        H  0.93969644  0.64251090  0.88710273     0.11800
H682        H  0.85853756  0.64661669  0.73852310     0.13600
C683        C  0.90214261  0.46690280  0.43103609    -0.01900
C684        C  0.94812009  0.45592276  0.43087163    -0.09900
C685        C  0.98745800  0.46944259  0.45772605    -0.18700
C686        C  0.98198902  0.49442235  0.48626120     0.03700
C687        C  0.93549808  0.50630724  0.48420991     0.17900
C688        C  0.89615704  0.49252954  0.45669198    -0.20100
C689        C  0.92845784  0.53157499  0.51039729    -0.21400
C690        C  0.96675961  0.54556706  0.53803749    -0.19900
C691        C  0.01284666  0.53426746  0.54109308     0.19300
C692        C  0.02100699  0.50816184  0.51631139     0.01400
C693        C  0.06789349  0.49697359  0.52272529    -0.14700
C694        C  0.10556642  0.51214428  0.54946237    -0.12400
C695        C  0.09779116  0.53880688  0.57078356     0.00900
C696        C  0.05107496  0.54930215  0.56783551    -0.24600
H697        H  0.95362312  0.43621420  0.41100145     0.08900
H698        H  0.02156156  0.45965936  0.45567677     0.12500
H699        H  0.86063017  0.50103917  0.45729107     0.11200
H700        H  0.89314906  0.54072298  0.50911325     0.12400
H701        H  0.96028654  0.56537120  0.55716647     0.11400
H702        H  0.07677206  0.47674395  0.50704413     0.08500
H703        H  0.14125493  0.50346804  0.55152863     0.11800
H704        H  0.04457945  0.56977971  0.58480097     0.13600
loop_ 
_geom_bond_atom_site_label_1 
_geom_bond_atom_site_label_2 
_geom_bond_distance 
_geom_bond_site_symmetry_2 
_ccdc_geom_bond_type 
O1           C16   1.266       .  A
O1           Al9   1.930       .  S
C2           O12   1.265       .  A
C2            O3   1.256       .  A
C2          C661   1.479       .  S
O3           Al5   1.876       .  S
O4            C6   1.275       .  A
O4           Al5   1.976       .  S
Al5          O13   1.976       .  S
Al5          O15   1.882       .  S
Al5          O14   1.779       .  S
C6           O19   1.257       .  A
C6          C595   1.485       .  S
O7           C17   1.268       .  A
O7           Al9   1.941       .  S
O8           C21   1.269       .  A
O8          Al18   1.937       .  S
Al9          O22   1.887       .  S
Al9          O19   1.857       .  S
Al9          O14   1.771       .  S
O10          C17   1.258       .  A
O10         Al18   1.881       .  S
O11          C20   1.257       .  A
O11         Al18   1.860       .  S
O12         Al18   1.928       .  S
O13          C20   1.275       .  A
O14         Al18   1.770       .  S
O15          C16   1.258       .  A
C16         C639   1.479       .  S
C17         C695   1.476       .  S
C20         C585   1.490       .  S
C21          O22   1.261       .  A
C21         C617   1.480       .  S
O23          C38   1.270       .  A
O23         Al31   1.936       .  S
C24          O34   1.267       .  A
C24          O25   1.259       .  A
C24         C673   1.480       .  S
O25         Al27   1.879       .  S
O26          C28   1.269       .  A
O26         Al27   1.958       .  S
Al27         O35   1.959       .  S
Al27         O37   1.884       .  S
Al27         O36   1.776       .  S
C28          O41   1.256       .  A
C28         C507   1.474       .  S
O29          C39   1.268       .  A
O29         Al31   1.947       .  S
O30          C43   1.268       .  A
O30         Al40   1.934       .  S
Al31         O44   1.890       .  S
Al31         O41   1.865       .  S
Al31         O36   1.771       .  S
O32          C39   1.256       .  A
O32         Al40   1.866       .  S
O33          C42   1.260       .  A
O33         Al40   1.879       .  S
O34         Al40   1.934       .  S
O35          C42   1.273       .  A
O36         Al40   1.767       .  S
O37          C38   1.262       .  A
C38         C651   1.480       .  S
C39         C551   1.474       .  S
C42         C497   1.485       .  S
C43          O44   1.261       .  A
C43         C529   1.482   1_556  S
O45          C60   1.262       .  A
O45         Al53   1.891       .  S
C46          O56   1.259       .  A
C46          O47   1.267       .  A
C46         C463   1.483       .  S
O47         Al49   1.934       .  S
O48          C50   1.255       .  A
O48         Al49   1.875       .  S
Al49         O57   1.869       .  S
Al49         O59   1.935       .  S
Al49         O58   1.768       .  S
C50          O63   1.266       .  A
C50         C683   1.474       .  S
O51          C61   1.260       .  A
O51         Al53   1.876       .  S
O52          C65   1.264       .  A
O52         Al62   1.896       .  S
Al53         O66   1.934       .  S
Al53         O63   1.944       .  S
Al53         O58   1.774       .  S
O54          C61   1.271       .  A
O54         Al62   1.955       .  S
O55          C64   1.272       .  A
O55         Al62   1.963       .  S
O56         Al62   1.883       .  S
O57          C64   1.257       .  A
O58         Al62   1.778       .  S
O59          C60   1.270       .  A
C60         C519   1.481       .  S
C61         C541   1.475       .  S
C64         C431   1.487       .  S
C65          O66   1.268       .  A
C65         C453   1.485       .  S
O67          C82   1.260       .  A
O67         Al75   1.879       .  S
C68          O78   1.257       .  A
C68          O69   1.270       .  A
C68         C475   1.486       .  S
O69         Al71   1.952       .  S
O70          C72   1.254       .  A
O70         Al71   1.867       .  S
Al71         O79   1.865       .  S
Al71         O81   1.956       .  S
Al71         O80   1.767       .  S
C72          O85   1.267       .  A
C72         C563   1.475       .  S
O73          C83   1.257       .  A
O73         Al75   1.867       .  S
O74          C87   1.261       .  A
O74         Al84   1.885       .  S
Al75         O88   1.946       .  S
Al75         O85   1.945       .  S
Al75         O80   1.773       .  S
O76          C83   1.273       .  A
O76         Al84   1.962       .  S
O77          C86   1.272       .  A
O77         Al84   1.970       .  S
O78         Al84   1.869       .  S
O79          C86   1.256       .  A
O80         Al84   1.774       .  S
O81          C82   1.273       .  A
C82         C607   1.483   1_554  S
C83         C629   1.472       .  S
C86         C409   1.486       .  S
C87          O88   1.269       .  A
C87         C441   1.484       .  S
O89         C104   1.261       .  A
O89         Al97   1.885       .  S
C90         O100   1.259       .  A
C90          O91   1.267       .  A
C90         C365   1.480       .  S
O91         Al93   1.936       .  S
O92          C94   1.257       .  A
O92         Al93   1.877       .  S
Al93        O101   1.881       .  S
Al93        O103   1.933       .  S
Al93        O102   1.768       .  S
C94         O107   1.268       .  A
C94         C287   1.476       .  S
O95         C105   1.257       .  A
O95         Al97   1.868       .  S
O96         C109   1.262       .  A
O96        Al106   1.882       .  S
Al97        O110   1.947       .  S
Al97        O107   1.949       .  S
Al97        O102   1.776       .  S
O98         C105   1.269       .  A
O98        Al106   1.952       .  S
O99         C108   1.271       .  A
O99        Al106   1.953       .  S
O100       Al106   1.879       .  S
O101        C108   1.259       .  A
O102       Al106   1.776       .  S
O103        C104   1.269       .  A
C104        C321   1.477   1_554  S
C105        C343   1.473       .  S
C108        C485   1.485       .  S
C109        O110   1.270       .  A
C109        C375   1.484       .  S
O111        C126   1.263       .  A
O111       Al119   1.894       .  S
C112        O122   1.257       .  A
C112        O113   1.267       .  A
C112        C353   1.482       .  S
O113       Al115   1.940       .  S
O114        C116   1.255       .  A
O114       Al115   1.873       .  S
Al115       O123   1.872       .  S
Al115       O125   1.938       .  S
Al115       O124   1.768       .  S
C116        O129   1.265       .  A
C116        C221   1.472       .  S
O117        C127   1.258       .  A
O117       Al119   1.872       .  S
O118        C131   1.261       .  A
O118       Al128   1.886       .  S
Al119       O132   1.941       .  S
Al119       O129   1.935       .  S
Al119       O124   1.778       .  S
O120        C127   1.272       .  A
O120       Al128   1.962       .  S
O121        C130   1.272       .  A
O121       Al128   1.962       .  S
O122       Al128   1.872       .  S
O123        C130   1.257       .  A
O124       Al128   1.774       .  S
O125        C126   1.271       .  A
C126        C243   1.484       .  S
C127        C265   1.477       .  S
C130        C573   1.489       .  S
C131        O132   1.267       .  A
C131        C387   1.481       .  S
O133        C148   1.267       .  A
O133       Al141   1.938       .  S
C134        O144   1.268       .  A
C134        O135   1.258       .  A
C134        C177   1.487       .  S
O135       Al137   1.885       .  S
O136        C138   1.273       .  A
O136       Al137   1.969       .  S
Al137       O145   1.962       .  S
Al137       O147   1.887       .  S
Al137       O146   1.775       .  S
C138        O151   1.258       .  A
C138        C255   1.478       .  S
O139        C149   1.269       .  A
O139       Al141   1.947       .  S
O140        C153   1.270       .  A
O140       Al150   1.949       .  S
Al141       O154   1.884       .  S
Al141       O151   1.862       .  S
Al141       O146   1.770       .  S
O142        C149   1.259       .  A
O142       Al150   1.883       .  S
O143        C152   1.259       .  A
O143       Al150   1.878       .  S
O144       Al150   1.943       .  S
O145        C152   1.274       .  A
O146       Al150   1.772       .  S
O147        C148   1.260       .  A
C148        C199   1.483       .  S
C149        C299   1.478       .  S
C152        C397   1.486       .  S
C153        O154   1.261       .  A
C153        C277   1.482   1_556  S
O155        C170   1.269       .  A
O155       Al163   1.949       .  S
C156        O166   1.266       .  A
C156        O157   1.257       .  A
C156        C189   1.481       .  S
O157       Al159   1.875       .  S
O158        C160   1.271       .  A
O158       Al159   1.958       .  S
Al159       O167   1.962       .  S
Al159       O169   1.877       .  S
Al159       O168   1.773       .  S
C160        O173   1.257       .  A
C160        C309   1.478       .  S
O161        C171   1.269       .  A
O161       Al163   1.951       .  S
O162        C175   1.269       .  A
O162       Al172   1.934       .  S
Al163       O176   1.891       .  S
Al163       O173   1.863       .  S
Al163       O168   1.777       .  S
O164        C171   1.256       .  A
O164       Al172   1.863       .  S
O165        C174   1.258       .  A
O165       Al172   1.868       .  S
O166       Al172   1.942       .  S
O167        C174   1.273       .  A
O168       Al172   1.768       .  S
O169        C170   1.260       .  A
C170        C211   1.485       .  S
C171        C233   1.471       .  S
C174        C419   1.485       .  S
C175        O176   1.261       .  A
C175        C331   1.481       .  S
C177        C178   1.400       .  A
C177        C182   1.407       .  A
C178        C179   1.398       .  A
C178        H191   1.083       .  S
C179        C180   1.416       .  A
C179        H192   1.079       .  S
C180        C186   1.431       .  A
C180        C181   1.421       .  A
C181        C183   1.401       .  A
C181        C182   1.407       .  A
C182        H193   1.084       .  S
C183        C184   1.392       .  A
C183        H194   1.083       .  S
C184        C185   1.400       .  A
C184        H195   1.085       .  S
C185        C186   1.424       .  A
C185        C190   1.410       .  A
C186        C187   1.412       .  A
C187        C188   1.394       .  A
C187        H196   1.080       .  S
C188        C189   1.401       .  A
C188        H197   1.083       .  S
C189        C190   1.402       .  A
C190        H198   1.086       .  S
C199        C200   1.401       .  A
C199        C204   1.404       .  A
C200        C201   1.395       .  A
C200        H213   1.084       .  S
C201        C202   1.415       .  A
C201        H214   1.074       .  S
C202        C208   1.431   1_455  A
C202        C203   1.422       .  A
C203        C205   1.400       .  A
C203        C204   1.408       .  A
C204        H215   1.083       .  S
C205        C206   1.393   1_455  A
C205        H216   1.084       .  S
C206        C207   1.400       .  A
C206        H217   1.083       .  S
C207        C208   1.423       .  A
C207        C212   1.411       .  A
C208        C209   1.413       .  A
C209        C210   1.393       .  A
C209        H218   1.074       .  S
C210        C211   1.402       .  A
C210        H219   1.084       .  S
C211        C212   1.404       .  A
C212        H220   1.083       .  S
C221        C222   1.398       .  A
C221        C226   1.402       .  A
C222        C223   1.394   1_565  A
C222        H235   1.083   1_565  S
C223        C224   1.416   1_545  A
C223        H236   1.077       .  S
C224        C230   1.425   1_565  A
C224        C225   1.420       .  A
C225        C227   1.400       .  A
C225        C226   1.400       .  A
C226        H237   1.085       .  S
C227        C228   1.389       .  A
C227        H238   1.084       .  S
C228        C229   1.398       .  A
C228        H239   1.084       .  S
C229        C230   1.424   1_565  A
C229        C234   1.404   1_565  A
C230        C231   1.411       .  A
C231        C232   1.390       .  A
C231        H240   1.077       .  S
C232        C233   1.401       .  A
C232        H241   1.084       .  S
C233        C234   1.399       .  A
C234        H242   1.085       .  S
C243        C244   1.400       .  A
C243        C248   1.407       .  A
C244        C245   1.393       .  A
C244        H257   1.083       .  S
C245        C246   1.414       .  A
C245        H258   1.076       .  S
C246        C252   1.429   1_565  A
C246        C247   1.420       .  A
C247        C249   1.402   1_565  A
C247        C248   1.410       .  A
C248        H259   1.084       .  S
C249        C250   1.395       .  A
C249        H260   1.084       .  S
C250        C251   1.401       .  A
C250        H261   1.084       .  S
C251        C252   1.424       .  A
C251        C256   1.414       .  A
C252        C253   1.411       .  A
C253        C254   1.390       .  A
C253        H262   1.076   1_545  S
C254        C255   1.400       .  A
C254        H263   1.084       .  S
C255        C256   1.403       .  A
C256        H264   1.084       .  S
C265        C266   1.398       .  A
C265        C270   1.403       .  A
C266        C267   1.400       .  A
C266        H279   1.083       .  S
C267        C268   1.418       .  A
C267        H280   1.078       .  S
C268        C274   1.430   1_565  A
C268        C269   1.420       .  A
C269        C271   1.400   1_565  A
C269        C270   1.402       .  A
C270        H281   1.085       .  S
C271        C272   1.390       .  A
C271        H282   1.084       .  S
C272        C273   1.399       .  A
C272        H283   1.084       .  S
C273        C274   1.423       .  A
C273        C278   1.406       .  A
C274        C275   1.412       .  A
C275        C276   1.396       .  A
C275        H284   1.078       .  S
C276        C277   1.403       .  A
C276        H285   1.083   1_554  S
C277        C278   1.402       .  A
C278        H286   1.085       .  S
C287        C288   1.401       .  A
C287        C292   1.401       .  A
C288        C289   1.393       .  A
C288        H301   1.084       .  S
C289        C290   1.412       .  A
C289        H302   1.077       .  S
C290        C296   1.429   1_564  A
C290        C291   1.424   1_565  A
C291        C293   1.399   1_554  A
C291        C292   1.407   1_545  A
C292        H303   1.084   1_565  S
C293        C294   1.391       .  A
C293        H304   1.084       .  S
C294        C295   1.400       .  A
C294        H305   1.084       .  S
C295        C296   1.420       .  A
C295        C300   1.403       .  A
C296        C297   1.416   1_545  A
C297        C298   1.396   1_565  A
C297        H306   1.077   1_556  S
C298        C299   1.399       .  A
C298        H307   1.084       .  S
C299        C300   1.403       .  A
C300        H308   1.084       .  S
C309        C310   1.402       .  A
C309        C314   1.401       .  A
C310        C311   1.391       .  A
C310        H323   1.084       .  S
C311        C312   1.411       .  A
C311        H324   1.077   1_545  S
C312        C318   1.428   1_545  A
C312        C313   1.424       .  A
C313        C315   1.399       .  A
C313        C314   1.409       .  A
C314        H325   1.084       .  S
C315        C316   1.392       .  A
C315        H326   1.083       .  S
C316        C317   1.401   1_545  A
C316        H327   1.084       .  S
C317        C318   1.420       .  A
C317        C322   1.405       .  A
C318        C319   1.416       .  A
C319        C320   1.394       .  A
C319        H328   1.077       .  S
C320        C321   1.398       .  A
C320        H329   1.083       .  S
C321        C322   1.405       .  A
C322        H330   1.085   1_556  S
C331        C332   1.403       .  A
C331        C336   1.400       .  A
C332        C333   1.399       .  A
C332        H345   1.083       .  S
C333        C334   1.414       .  A
C333        H346   1.078       .  S
C334        C340   1.430   1_545  A
C334        C335   1.423       .  A
C335        C337   1.398       .  A
C335        C336   1.401       .  A
C336        H347   1.085       .  S
C337        C338   1.386       .  A
C337        H348   1.084       .  S
C338        C339   1.398   1_545  A
C338        H349   1.084       .  S
C339        C340   1.421       .  A
C339        C344   1.398       .  A
C340        C341   1.418       .  A
C341        C342   1.402       .  A
C341        H350   1.078       .  S
C342        C343   1.399       .  A
C342        H351   1.083       .  S
C343        C344   1.399       .  A
C344        H352   1.085       .  S
C353        C354   1.403       .  A
C353        C358   1.401       .  A
C354        C355   1.393       .  A
C354        H367   1.083       .  S
C355        C356   1.412       .  A
C355        H368   1.079       .  S
C356        C362   1.429       .  A
C356        C357   1.424       .  A
C357        C359   1.399       .  A
C357        C358   1.407       .  A
C358        H369   1.086       .  S
C359        C360   1.390       .  A
C359        H370   1.085       .  S
C360        C361   1.400       .  A
C360        H371   1.083       .  S
C361        C362   1.421       .  A
C361        C366   1.404       .  A
C362        C363   1.416       .  A
C363        C364   1.396       .  A
C363        H372   1.078       .  S
C364        C365   1.400       .  A
C364        H373   1.083       .  S
C365        C366   1.404       .  A
C366        H374   1.085       .  S
C375        C376   1.402       .  A
C375        C380   1.404       .  A
C376        C377   1.392       .  A
C376        H389   1.083       .  S
C377        C378   1.412       .  A
C377        H390   1.077       .  S
C378        C384   1.429   1_655  A
C378        C379   1.422       .  A
C379        C381   1.401       .  A
C379        C380   1.410       .  A
C380        H391   1.084       .  S
C381        C382   1.394   1_655  A
C381        H392   1.084       .  S
C382        C383   1.401       .  A
C382        H393   1.084       .  S
C383        C384   1.422       .  A
C383        C388   1.409       .  A
C384        C385   1.414       .  A
C385        C386   1.393       .  A
C385        H394   1.078       .  S
C386        C387   1.400       .  A
C386        H395   1.083       .  S
C387        C388   1.404       .  A
C388        H396   1.085       .  S
C397        C398   1.398       .  A
C397        C402   1.408       .  A
C398        C399   1.400       .  A
C398        H411   1.084       .  S
C399        C400   1.418       .  A
C399        H412   1.076       .  S
C400        C406   1.431   1_556  A
C400        C401   1.419   1_556  A
C401        C403   1.403       .  A
C401        C402   1.408   1_554  A
C402        H413   1.083   1_556  S
C403        C404   1.395       .  A
C403        H414   1.082       .  S
C404        C405   1.400       .  A
C404        H415   1.085       .  S
C405        C406   1.425       .  A
C405        C410   1.415       .  A
C406        C407   1.410   1_554  A
C407        C408   1.393   1_556  A
C407        H416   1.078       .  S
C408        C409   1.403       .  A
C408        H417   1.083   1_554  S
C409        C410   1.404       .  A
C410        H418   1.085       .  S
C419        C420   1.400       .  A
C419        C424   1.406       .  A
C420        C421   1.402       .  A
C420        H433   1.083       .  S
C421        C422   1.419       .  A
C421        H434   1.079       .  S
C422        C428   1.433       .  A
C422        C423   1.419       .  A
C423        C425   1.401       .  A
C423        C424   1.403       .  A
C424        H435   1.085       .  S
C425        C426   1.390       .  A
C425        H436   1.083       .  S
C426        C427   1.398       .  A
C426        H437   1.085       .  S
C427        C428   1.426       .  A
C427        C432   1.410       .  A
C428        C429   1.411       .  A
C429        C430   1.395       .  A
C429        H438   1.081       .  S
C430        C431   1.405       .  A
C430        H439   1.082       .  S
C431        C432   1.401       .  A
C432        H440   1.086       .  S
C441        C442   1.402       .  A
C441        C446   1.402       .  A
C442        C443   1.401       .  A
C442        H455   1.083       .  S
C443        C444   1.417       .  A
C443        H456   1.078       .  S
C444        C450   1.433       .  A
C444        C445   1.422       .  A
C445        C447   1.399       .  A
C445        C446   1.402       .  A
C446        H457   1.085       .  S
C447        C448   1.387       .  A
C447        H458   1.084       .  S
C448        C449   1.398       .  A
C448        H459   1.084       .  S
C449        C450   1.423       .  A
C449        C454   1.404       .  A
C450        C451   1.415       .  A
C451        C452   1.400       .  A
C451        H460   1.077       .  S
C452        C453   1.403       .  A
C452        H461   1.083       .  S
C453        C454   1.401       .  A
C454        H462   1.084       .  S
C463        C464   1.400       .  A
C463        C468   1.404       .  A
C464        C465   1.397       .  A
C464        H477   1.083       .  S
C465        C466   1.417       .  A
C465        H478   1.079   1_655  S
C466        C472   1.432   1_655  A
C466        C467   1.421       .  A
C467        C469   1.401       .  A
C467        C468   1.406       .  A
C468        H479   1.085       .  S
C469        C470   1.391       .  A
C469        H480   1.083       .  S
C470        C471   1.399   1_655  A
C470        H481   1.085       .  S
C471        C472   1.425       .  A
C471        C476   1.410       .  A
C472        C473   1.411       .  A
C473        C474   1.394       .  A
C473        H482   1.080       .  S
C474        C475   1.404       .  A
C474        H483   1.083       .  S
C475        C476   1.402       .  A
C476        H484   1.086       .  S
C485        C486   1.400       .  A
C485        C490   1.405       .  A
C486        C487   1.401       .  A
C486        H499   1.083       .  S
C487        C488   1.418       .  A
C487        H500   1.077       .  S
C488        C494   1.433   1_554  A
C488        C489   1.421   1_554  A
C489        C491   1.400       .  A
C489        C490   1.405   1_556  A
C490        H501   1.084   1_554  S
C491        C492   1.390       .  A
C491        H502   1.083       .  S
C492        C493   1.399       .  A
C492        H503   1.085       .  S
C493        C494   1.425       .  A
C493        C498   1.409       .  A
C494        C495   1.413   1_556  A
C495        C496   1.397   1_554  A
C495        H504   1.079       .  S
C496        C497   1.404       .  A
C496        H505   1.083   1_556  S
C497        C498   1.401       .  A
C498        H506   1.086       .  S
C507        C508   1.399       .  A
C507        C512   1.399       .  A
C508        C509   1.403       .  A
C508        H521   1.084       .  S
C509        C510   1.419       .  A
C509        H522   1.078       .  S
C510        C516   1.432       .  A
C510        C511   1.421       .  A
C511        C513   1.398       .  A
C511        C512   1.398       .  A
C512        H523   1.085       .  S
C513        C514   1.385       .  A
C513        H524   1.084       .  S
C514        C515   1.397       .  A
C514        H525   1.084       .  S
C515        C516   1.423       .  A
C515        C520   1.401       .  A
C516        C517   1.415       .  A
C517        C518   1.400       .  A
C517        H526   1.078       .  S
C518        C519   1.403       .  A
C518        H527   1.083       .  S
C519        C520   1.399       .  A
C520        H528   1.085       .  S
C529        C530   1.403       .  A
C529        C534   1.401       .  A
C530        C531   1.399       .  A
C530        H543   1.083   1_554  S
C531        C532   1.415       .  A
C531        H544   1.078       .  S
C532        C538   1.432       .  A
C532        C533   1.423       .  A
C533        C535   1.398       .  A
C533        C534   1.403       .  A
C534        H545   1.085       .  S
C535        C536   1.387       .  A
C535        H546   1.084       .  S
C536        C537   1.398       .  A
C536        H547   1.084       .  S
C537        C538   1.422       .  A
C537        C542   1.401       .  A
C538        C539   1.418       .  A
C539        C540   1.401       .  A
C539        H548   1.077       .  S
C540        C541   1.399       .  A
C540        H549   1.084       .  S
C541        C542   1.400       .  A
C542        H550   1.085       .  S
C551        C552   1.402       .  A
C551        C556   1.400       .  A
C552        C553   1.389       .  A
C552        H565   1.083       .  S
C553        C554   1.409       .  A
C553        H566   1.078   1_655  S
C554        C560   1.424   1_656  A
C554        C555   1.424       .  A
C555        C557   1.399       .  A
C555        C556   1.405       .  A
C556        H567   1.085       .  S
C557        C558   1.390   1_556  A
C557        H568   1.084       .  S
C558        C559   1.401   1_655  A
C558        H569   1.084       .  S
C559        C560   1.419       .  A
C559        C564   1.399       .  A
C560        C561   1.416       .  A
C561        C562   1.395       .  A
C561        H570   1.078       .  S
C562        C563   1.397       .  A
C562        H571   1.083       .  S
C563        C564   1.405       .  A
C564        H572   1.085       .  S
C573        C574   1.399       .  A
C573        C578   1.408       .  A
C574        C575   1.402       .  A
C574        H587   1.083       .  S
C575        C576   1.420       .  A
C575        H588   1.077       .  S
C576        C582   1.433       .  A
C576        C577   1.419       .  A
C577        C579   1.402       .  A
C577        C578   1.406       .  A
C578        H589   1.084       .  S
C579        C580   1.393       .  A
C579        H590   1.084       .  S
C580        C581   1.399       .  A
C580        H591   1.084       .  S
C581        C582   1.426       .  A
C581        C586   1.415       .  A
C582        C583   1.409       .  A
C583        C584   1.392       .  A
C583        H592   1.078       .  S
C584        C585   1.406       .  A
C584        H593   1.083       .  S
C585        C586   1.403       .  A
C586        H594   1.085       .  S
C595        C596   1.404       .  A
C595        C600   1.402       .  A
C596        C597   1.390       .  A
C596        H609   1.083       .  S
C597        C598   1.409       .  A
C597        H610   1.079       .  S
C598        C604   1.430       .  A
C598        C599   1.426       .  A
C599        C601   1.400       .  A
C599        C600   1.414       .  A
C600        H611   1.085       .  S
C601        C602   1.393       .  A
C601        H612   1.084       .  S
C602        C603   1.402       .  A
C602        H613   1.085       .  S
C603        C604   1.419       .  A
C603        C608   1.405       .  A
C604        C605   1.418       .  A
C605        C606   1.397       .  A
C605        H614   1.079       .  S
C606        C607   1.398       .  A
C606        H615   1.083       .  S
C607        C608   1.407       .  A
C608        H616   1.085   1_556  S
C617        C618   1.400       .  A
C617        C622   1.404       .  A
C618        C619   1.396       .  A
C618        H631   1.083       .  S
C619        C620   1.415       .  A
C619        H632   1.078       .  S
C620        C626   1.428       .  A
C620        C621   1.421       .  A
C621        C623   1.400       .  A
C621        C622   1.404       .  A
C622        H633   1.085       .  S
C623        C624   1.391       .  A
C623        H634   1.084       .  S
C624        C625   1.399       .  A
C624        H635   1.084       .  S
C625        C626   1.424       .  A
C625        C630   1.407       .  A
C626        C627   1.413       .  A
C627        C628   1.393       .  A
C627        H636   1.078       .  S
C628        C629   1.400       .  A
C628        H637   1.084       .  S
C629        C630   1.398       .  A
C630        H638   1.085       .  S
C639        C640   1.400       .  A
C639        C644   1.403       .  A
C640        C641   1.396       .  A
C640        H653   1.083       .  S
C641        C642   1.415       .  A
C641        H654   1.078       .  S
C642        C648   1.429       .  A
C642        C643   1.422       .  A
C643        C645   1.399       .  A
C643        C644   1.402       .  A
C644        H655   1.085       .  S
C645        C646   1.389       .  A
C645        H656   1.084       .  S
C646        C647   1.399       .  A
C646        H657   1.084       .  S
C647        C648   1.422       .  A
C647        C652   1.403       .  A
C648        C649   1.415       .  A
C649        C650   1.396       .  A
C649        H658   1.078       .  S
C650        C651   1.401       .  A
C650        H659   1.083       .  S
C651        C652   1.403       .  A
C652        H660   1.085       .  S
C661        C662   1.402       .  A
C661        C666   1.400       .  A
C662        C663   1.395       .  A
C662        H675   1.083       .  S
C663        C664   1.413       .  A
C663        H676   1.080       .  S
C664        C670   1.430   1_455  A
C664        C665   1.423       .  A
C665        C667   1.398   1_455  A
C665        C666   1.404       .  A
C666        H677   1.086       .  S
C667        C668   1.388       .  A
C667        H678   1.085       .  S
C668        C669   1.399       .  A
C668        H679   1.083       .  S
C669        C670   1.421       .  A
C669        C674   1.402       .  A
C670        C671   1.416       .  A
C671        C672   1.398       .  A
C671        H680   1.078   1_655  S
C672        C673   1.401       .  A
C672        H681   1.083       .  S
C673        C674   1.402       .  A
C674        H682   1.084       .  S
C683        C684   1.400       .  A
C683        C688   1.400       .  A
C684        C685   1.392       .  A
C684        H697   1.084       .  S
C685        C686   1.413       .  A
C685        H698   1.077   1_655  S
C686        C692   1.427   1_655  A
C686        C687   1.423       .  A
C687        C689   1.399       .  A
C687        C688   1.405       .  A
C688        H699   1.084       .  S
C689        C690   1.390       .  A
C689        H700   1.084       .  S
C690        C691   1.400   1_655  A
C690        H701   1.084       .  S
C691        C692   1.421       .  A
C691        C696   1.403       .  A
C692        C693   1.415       .  A
C693        C694   1.395       .  A
C693        H702   1.077       .  S
C694        C695   1.399       .  A
C694        H703   1.083       .  S
C695        C696   1.403       .  A
C696        H704   1.084       .  S
