geometry optimzed in LAMMPS
_audit_creation_date              2020-12-01 
_audit_creation_method            'lammps2cif' 
_symmetry_space_group_name_H-M    'P1' 
_symmetry_Int_Tables_number       1 
_symmetry_cell_setting            triclinic 
loop_ 
_symmetry_equiv_pos_as_xyz 
  x,y,z 
_cell_length_a                    29.60796355 
_cell_length_b                    42.647747328640186 
_cell_length_c                    53.65148039530663 
_cell_angle_alpha                 90.18922693022185 
_cell_angle_beta                  90.3517501006922 
_cell_angle_gamma                 89.98046576863531 
loop_ 
_atom_site_label 
_atom_site_type_symbol 
_atom_site_fract_x 
_atom_site_fract_y 
_atom_site_fract_z 
_atom_site_charge 
O1          O  0.30836931  0.86477141  0.39591568    -0.85600
O2          O  0.27449145  0.91781146  0.37688377    -0.82700
C3          C  0.27046304  0.94649048  0.37228314     0.97800
O4          O  0.30452711  0.96194947  0.36590935    -0.82700
O5          O  0.34558612  0.96348782  0.41185544    -0.85400
C6          C  0.37007926  0.95509941  0.42984870     1.02300
O7          O  0.40097417  0.93485372  0.42705203    -0.78100
O8          O  0.35575940  0.88155063  0.42469921    -0.78300
C9          C  0.31950667  0.86805834  0.41878568     1.02300
O10         O  0.37127805  0.86017538  0.35334832    -0.85600
O11         O  0.33492030  0.91658473  0.33344545    -0.82700
C12         C  0.36359710  0.93785597  0.32746203     0.97800
O13         O  0.38897246  0.94996639  0.34381709    -0.82700
O14         O  0.43211892  0.96242535  0.38846752    -0.85300
C15         C  0.46525432  0.94395202  0.38674086     1.02300
O16         O  0.45821981  0.91479698  0.38634677    -0.78200
O17         O  0.41414232  0.85793395  0.38686052    -0.78300
C18         C  0.40228101  0.84716104  0.36594970     1.02300
Cr19       Cr  0.32588670  0.89146076  0.36590519     1.93700
Cr20       Cr  0.36770757  0.95588731  0.37785886     1.93200
Cr21       Cr  0.40438585  0.89831193  0.40425450     1.39100
O22         O  0.36613889  0.91464725  0.38238926    -1.23400
O23         O  0.66089223  0.60774842  0.39487339    -0.85600
O24         O  0.67742684  0.56029462  0.36213025    -0.82700
C25         C  0.68299684  0.53743326  0.37681558     0.97800
O26         O  0.65022660  0.52650121  0.38884666    -0.82700
O27         O  0.56614338  0.52247750  0.41037711    -0.85400
C28         C  0.56759889  0.53878150  0.42998249     1.02300
O29         O  0.57375138  0.56781205  0.42880840    -0.78100
O30         O  0.59868201  0.62445052  0.41220267    -0.78300
C31         C  0.64111718  0.62045794  0.41312333     1.02300
O32         O  0.59542699  0.63506399  0.36080895    -0.85600
O33         O  0.60632535  0.58085213  0.32974118    -0.82700
C34         C  0.60492524  0.55179044  0.32432419     0.97800
O35         O  0.60839455  0.53133671  0.34116901    -0.82700
O36         O  0.52548756  0.53296273  0.36329835    -0.85300
C37         C  0.49325741  0.54372363  0.37597817     1.02300
O38         O  0.50039943  0.56395111  0.39298115    -0.78200
O39         O  0.52893599  0.61984842  0.37342685    -0.78300
C40         C  0.55338399  0.64002282  0.36308002     1.02300
Cr41       Cr  0.63162175  0.59473609  0.36295440     1.93700
Cr42       Cr  0.58796258  0.53171238  0.37621396     1.93200
Cr43       Cr  0.55318424  0.59257641  0.40008425     1.39100
O44         O  0.59041449  0.57307718  0.37950136    -1.23400
O45         O  0.30301896  0.10250826  0.09151374    -0.85600
O46         O  0.28718330  0.05699885  0.12613888    -0.82700
C47         C  0.28201388  0.03238165  0.11319786     0.97800
O48         O  0.31489691  0.02111624  0.10118127    -0.82700
O49         O  0.40232025  0.01626393  0.08076011    -0.85400
C50         C  0.40434837  0.03122617  0.06057358     1.02300
O51         O  0.39302248  0.05958673  0.06004709    -0.78100
O52         O  0.36564338  0.11772536  0.07393089    -0.78300
C53         C  0.32322108  0.11394532  0.07292673     1.02300
O54         O  0.36781392  0.13239231  0.12548881    -0.85600
O55         O  0.35665468  0.08024009  0.15824079    -0.82700
C56         C  0.35524324  0.05168536  0.16501279     0.97800
O57         O  0.35495212  0.02996109  0.14894429    -0.82700
O58         O  0.43963437  0.03119864  0.12738750    -0.85300
C59         C  0.47168284  0.04166561  0.11435834     1.02300
O60         O  0.46437808  0.06050126  0.09659234    -0.78200
O61         O  0.43429419  0.11682385  0.11314894    -0.78300
C62         C  0.40995047  0.13711398  0.12348837     1.02300
Cr63       Cr  0.33217940  0.09170553  0.12421409     1.93700
Cr64       Cr  0.37730102  0.02801297  0.11405090     1.93200
Cr65       Cr  0.41130692  0.08736475  0.08769319     1.39100
O66         O  0.37404195  0.06909616  0.10885874    -1.23400
O67         O  0.66364315  0.37691392  0.09387496    -0.85600
O68         O  0.68264231  0.42554151  0.12555421    -0.82700
C69         C  0.68801769  0.44888479  0.11125098     0.97800
O70         O  0.65490511  0.45923791  0.09878016    -0.82700
O71         O  0.56784082  0.46285792  0.07849879    -0.85400
C72         C  0.56389301  0.44637972  0.05913150     1.02300
O73         O  0.57334656  0.41775230  0.05969256    -0.78100
O74         O  0.60045200  0.36115722  0.07640573    -0.78300
C75         C  0.64307304  0.36402090  0.07585072     1.02300
O76         O  0.59968271  0.35084549  0.12872974    -0.85600
O77         O  0.61222121  0.40596632  0.15874136    -0.82700
C78         C  0.61459091  0.43504564  0.16386531     0.97800
O79         O  0.61581593  0.45509273  0.14666275    -0.82700
O80         O  0.53043620  0.45339372  0.12546787    -0.85300
C81         C  0.49731729  0.44252754  0.11317645     1.02300
O82         O  0.50326286  0.42154630  0.09667518    -0.78200
O83         O  0.53311797  0.36598877  0.11590191    -0.78300
C84         C  0.55757929  0.34591660  0.12649422     1.02300
Cr85       Cr  0.63599990  0.39114375  0.12559723     1.93700
Cr86       Cr  0.59271129  0.45416567  0.11201023     1.93200
Cr87       Cr  0.55567142  0.39302934  0.08893651     1.39100
O88         O  0.59440225  0.41271030  0.10895915    -1.23400
O89         O  0.87343249  0.88948388  0.06330396    -0.85600
O90         O  0.93198155  0.93666573  0.07066849    -0.82700
C91         C  0.90640670  0.95933162  0.06542361     0.97800
O92         O  0.87644836  0.96822060  0.08044298    -0.82700
O93         O  0.81513391  0.96472685  0.11927772    -0.85400
C94         C  0.78117630  0.94936669  0.11179047     1.02300
O95         O  0.78503340  0.92089563  0.10607027    -0.78100
O96         O  0.82235653  0.86793935  0.08738473    -0.78300
C97         C  0.83701253  0.87468156  0.06570433     1.02300
O98         O  0.91413779  0.85471165  0.10253372    -0.85600
O99         O  0.96707344  0.90651423  0.11358922    -0.82700
C100        C  0.97799168  0.93467503  0.11762931     0.97800
O101        O  0.94915696  0.95644631  0.11526321    -0.82700
O102        O  0.88757661  0.94657416  0.15151379    -0.85300
C103        C  0.85733489  0.93344330  0.16408054     1.02300
O104        O  0.82946715  0.91444404  0.15389719    -0.78200
O105        O  0.87170844  0.86006462  0.13545805    -0.78300
C106        C  0.90136918  0.84512505  0.12347745     1.02300
Cr107      Cr  0.91819683  0.89798086  0.08926850     1.93700
Cr108      Cr  0.88149651  0.95573549  0.11598591     1.93200
Cr109      Cr  0.83102697  0.89237258  0.11996570     1.39100
O110        O  0.87668711  0.91522357  0.10862818    -1.23400
O111        O  0.10187362  0.60414792  0.06755778    -0.85600
O112        O  0.04457442  0.55512611  0.06938314    -0.82700
C113        C  0.07004147  0.53229011  0.06478549     0.97800
O114        O  0.09959297  0.52369550  0.08028822    -0.82700
O115        O  0.15685074  0.52636193  0.12123334    -0.85400
C116        C  0.19112109  0.54309384  0.11700099     1.02300
O117        O  0.18712196  0.57224160  0.11415257    -0.78100
O118        O  0.14847198  0.62485396  0.09518448    -0.78300
C119        C  0.13723002  0.61940728  0.07256846     1.02300
O120        O  0.05272667  0.63465032  0.10579164    -0.85600
O121        O  0.00109518  0.58042078  0.11152551    -0.82700
C122        C  0.99214951  0.55164313  0.11445455     0.97800
O123        O  0.02322671  0.53130354  0.11272674    -0.82700
O124        O  0.08057601  0.53969600  0.15182884    -0.85300
C125        C  0.10715344  0.55334137  0.16668381     1.02300
O126        O  0.13407139  0.57451011  0.15905509    -0.78200
O127        O  0.09104053  0.62866547  0.14038657    -0.78300
C128        C  0.06242360  0.64357263  0.12748667     1.02300
Cr129      Cr  0.05366700  0.59238328  0.09053103     1.93700
Cr130      Cr  0.09060789  0.53383106  0.11610683     1.93200
Cr131      Cr  0.13618536  0.59835545  0.12607741     1.39100
O132        O  0.09371177  0.57495399  0.11114201    -1.23400
O133        O  0.86054556  0.11140534  0.42051609    -0.85600
O134        O  0.91230284  0.06023284  0.42185530    -0.82700
C135        C  0.88467909  0.03867101  0.42692865     0.97800
O136        O  0.85624648  0.02917183  0.41102906    -0.82700
O137        O  0.80416090  0.02792380  0.36779129    -0.85400
C138        C  0.77055936  0.04376934  0.37455073     1.02300
O139        O  0.77478792  0.07278764  0.37785039    -0.78100
O140        O  0.81144988  0.12748521  0.39240713    -0.78300
C141        C  0.82369640  0.12449925  0.41504577     1.02300
O142        O  0.91108058  0.13555607  0.37976391    -0.85600
O143        O  0.96017051  0.07958396  0.37835228    -0.82700
C144        C  0.96753559  0.05034632  0.37797250     0.97800
O145        O  0.93530547  0.03155666  0.38140181    -0.82700
O146        O  0.88313434  0.03956513  0.33990909    -0.85300
C147        C  0.85571908  0.05123062  0.32447485     1.02300
O148        O  0.82697195  0.07184936  0.33136958    -0.78200
O149        O  0.86667154  0.12893939  0.34722499    -0.78300
C150        C  0.89665584  0.14439263  0.35883210     1.02300
Cr151      Cr  0.90778641  0.09552260  0.39823851     1.93700
Cr152      Cr  0.86935746  0.03562901  0.37530545     1.93200
Cr153      Cr  0.82381046  0.09861140  0.36318796     1.39100
O154        O  0.86715856  0.07699804  0.37860631    -1.23400
O155        O  0.09305859  0.38861750  0.42607464    -0.85600
O156        O  0.04069515  0.43946331  0.42166025    -0.82700
C157        C  0.06916712  0.46069852  0.42621849     0.97800
O158        O  0.09870356  0.46788479  0.41042521    -0.82700
O159        O  0.15326069  0.46208338  0.36883632    -0.85400
C160        C  0.18694544  0.44545044  0.37445401     1.02300
O161        O  0.18208072  0.41688018  0.37961701    -0.78100
O162        O  0.14056751  0.36591005  0.40019095    -0.78300
C163        C  0.12765121  0.37219313  0.42235038     1.02300
O164        O  0.04421954  0.35768189  0.38798925    -0.85600
O165        O  0.99690694  0.41265111  0.37915253    -0.82700
C166        C  0.98917252  0.44151730  0.37629847     0.97800
O167        O  0.02092724  0.46111998  0.37873746    -0.82700
O168        O  0.07554125  0.44827012  0.33970738    -0.85300
C169        C  0.10295482  0.43425335  0.32574470     1.02300
O170        O  0.12951415  0.41325526  0.33434781    -0.78200
O171        O  0.08467656  0.36035987  0.35415635    -0.78300
C172        C  0.05439132  0.34713371  0.36687385     1.02300
Cr173      Cr  0.04717866  0.40061858  0.40182630     1.93700
Cr174      Cr  0.08746669  0.45645449  0.37497991     1.93200
Cr175      Cr  0.13047367  0.39079005  0.36805436     1.39100
O176        O  0.08879187  0.41573583  0.38148548    -1.23400
O177        O  0.58571806  0.10192398  0.55656634    -0.85600
O178        O  0.53471443  0.05050480  0.55583458    -0.82700
C179        C  0.56176528  0.02826457  0.55160432     0.97800
O180        O  0.58962011  0.01924334  0.56792559    -0.82700
O181        O  0.64005745  0.02022318  0.61164998    -0.85400
C182        C  0.67434972  0.03610447  0.60623030     1.02300
O183        O  0.67034598  0.06482800  0.60153273    -0.78100
O184        O  0.63379334  0.11907437  0.58485141    -0.78300
C185        C  0.62190130  0.11580629  0.56211883     1.02300
O186        O  0.53336985  0.12731118  0.59646367    -0.85600
O187        O  0.48525382  0.07145137  0.59830749    -0.82700
C188        C  0.47733897  0.04233842  0.59820671     0.97800
O189        O  0.50955532  0.02315149  0.59640969    -0.82700
O190        O  0.56068871  0.03261507  0.63885830    -0.85300
C191        C  0.58924559  0.04405207  0.65386919     1.02300
O192        O  0.61696232  0.06513434  0.64668288    -0.78200
O193        O  0.57644595  0.12156890  0.62957383    -0.78300
C194        C  0.54620100  0.13635679  0.61769175     1.02300
Cr195      Cr  0.53807453  0.08663341  0.57872668     1.93700
Cr196      Cr  0.57529117  0.02743962  0.60337371     1.93200
Cr197      Cr  0.62047089  0.09108988  0.61460354     1.39100
O198        O  0.57792685  0.06873981  0.59911330    -1.23400
O199        O  0.34856217  0.36241997  0.57921257    -0.85600
O200        O  0.37581399  0.42010402  0.56425405    -0.82700
C201        C  0.38753377  0.44835846  0.56468632     0.97800
O202        O  0.38648338  0.46357163  0.58480896    -0.82700
O203        O  0.30030675  0.45969229  0.60575739    -0.85400
C204        C  0.26739263  0.44881455  0.61786035     1.02300
O205        O  0.27276361  0.42485784  0.63157880    -0.78100
O206        O  0.28723046  0.37771754  0.59833232    -0.78300
C207        C  0.30601377  0.36560940  0.57956302     1.02300
O208        O  0.41909744  0.36415479  0.61711778    -0.85600
O209        O  0.44894224  0.41995219  0.59986519    -0.82700
C210        C  0.45709390  0.43894101  0.61756678     0.97800
O211        O  0.42549621  0.44949138  0.63099105    -0.82700
O212        O  0.34124106  0.45207485  0.65324773    -0.85300
C213        C  0.34327603  0.43083686  0.66951561     1.02300
O214        O  0.34465245  0.40215045  0.66312595    -0.78200
O215        O  0.35368018  0.34868814  0.63097517    -0.78300
C216        C  0.39545819  0.34362171  0.62747039     1.02300
Cr217      Cr  0.39513416  0.39297574  0.59189079     1.93700
Cr218      Cr  0.36272170  0.45285757  0.61825741     1.93200
Cr219      Cr  0.31803986  0.38969613  0.62992039     1.39100
O220        O  0.35895697  0.41173575  0.61345753    -1.23400
O221        O  0.62101765  0.86205799  0.90513111    -0.85600
O222        O  0.59821209  0.92033218  0.92146548    -0.82700
C223        C  0.58907914  0.94909909  0.92153328     0.97800
O224        O  0.58706014  0.96390446  0.90119722    -0.82700
O225        O  0.66914541  0.95854166  0.87614268    -0.85400
C226        C  0.70106271  0.94657382  0.86377175     1.02300
O227        O  0.69360268  0.92284308  0.85008910    -0.78100
O228        O  0.68121370  0.87829792  0.88587737    -0.78300
C229        C  0.66315978  0.86688457  0.90510260     1.02300
O230        O  0.54675875  0.86463373  0.86982859    -0.85600
O231        O  0.52086331  0.92144537  0.88914656    -0.82700
C232        C  0.51023973  0.94001733  0.87168894     0.97800
O233        O  0.53994004  0.94953785  0.85661286    -0.82700
O234        O  0.62033252  0.95004531  0.83021622    -0.85300
C235        C  0.61688451  0.92791113  0.81456405     1.02300
O236        O  0.61839936  0.89948326  0.82164377    -0.78200
O237        O  0.61123806  0.84781650  0.85531952    -0.78300
C238        C  0.56934363  0.84353617  0.85917991     1.02300
Cr239      Cr  0.57438425  0.89339426  0.89446427     1.93700
Cr240      Cr  0.60478657  0.95228234  0.86641663     1.93200
Cr241      Cr  0.64782268  0.88843803  0.85442842     1.39100
O242        O  0.60844900  0.91135028  0.87150463    -1.23400
O243        O  0.36397324  0.60494394  0.92691148    -0.85600
O244        O  0.40759133  0.55028108  0.92654295    -0.82700
C245        C  0.37795711  0.52896682  0.92859300     0.97800
O246        O  0.35200542  0.52185433  0.91080145    -0.82700
O247        O  0.30720459  0.52744893  0.86580707    -0.85400
C248        C  0.27388988  0.54235981  0.87410214     1.02300
O249        O  0.27885060  0.57061307  0.88028707    -0.78100
O250        O  0.31648843  0.62353564  0.89893149    -0.78300
C251        C  0.32866386  0.61988118  0.92156394     1.02300
O252        O  0.42034526  0.62890094  0.88805736    -0.85600
O253        O  0.46278803  0.57183984  0.88549446    -0.82700
C254        C  0.46911721  0.54267414  0.88461559     0.97800
O255        O  0.43575773  0.52447316  0.88591584    -0.82700
O256        O  0.39098428  0.54039344  0.84293176    -0.85300
C257        C  0.36370346  0.55238756  0.82762536     1.02300
O258        O  0.33473502  0.57270899  0.83501599    -0.78200
O259        O  0.37567571  0.62731054  0.85514797    -0.78300
C260        C  0.40788314  0.63974448  0.86727833     1.02300
Cr261      Cr  0.41058239  0.58801629  0.90487497     1.93700
Cr262      Cr  0.37136192  0.53202019  0.87682960     1.93200
Cr263      Cr  0.32987296  0.59690906  0.86828051     1.39100
O264        O  0.37060314  0.57284742  0.88330183    -1.23400
O265        O  0.13114247  0.85643070  0.58999717    -0.85600
O266        O  0.17061353  0.91014059  0.60572276    -0.82700
C267        C  0.17520821  0.93908327  0.60962001     0.97800
O268        O  0.14197500  0.95497489  0.61677719    -0.82700
O269        O  0.08871022  0.95665365  0.57413223    -0.85400
C270        C  0.05931131  0.94812046  0.55844272     1.02300
O271        O  0.03179221  0.92642362  0.56324255    -0.78100
O272        O  0.08284849  0.87486196  0.56235591    -0.78300
C273        C  0.11913805  0.86082410  0.56739944     1.02300
O274        O  0.07623938  0.85481701  0.63591912    -0.85600
O275        O  0.12014766  0.91082371  0.65248813    -0.82700
C276        C  0.09313126  0.93237966  0.65981647     0.97800
O277        O  0.06387820  0.94315320  0.64506603    -0.82700
O278        O  0.01086403  0.95333044  0.60447925    -0.85300
C279        C  0.97856004  0.93460881  0.60775969     1.02300
O280        O  0.98550976  0.90536508  0.60663913    -0.78200
O281        O  0.03297329  0.84923993  0.60286625    -0.78300
C282        C  0.04493442  0.84055478  0.62430049     1.02300
Cr283      Cr  0.12080105  0.88455013  0.62013269     1.93700
Cr284      Cr  0.07667989  0.94850543  0.60975302     1.93200
Cr285      Cr  0.03664806  0.89001870  0.58559964     1.39100
O286        O  0.07808610  0.90733735  0.60534162    -1.23400
O287        O  0.80385745  0.61739806  0.59421995    -0.85600
O288        O  0.76855994  0.56323806  0.61207019    -0.82700
C289        C  0.76587629  0.53406299  0.61501696     0.97800
O290        O  0.80105916  0.51802064  0.61877744    -0.82700
O291        O  0.86156503  0.51971306  0.57887665    -0.85400
C292        C  0.89199553  0.52998242  0.56471863     1.02300
O293        O  0.91597038  0.55294566  0.57114897    -0.78100
O294        O  0.85559281  0.60012803  0.56822011    -0.78300
C295        C  0.81831229  0.61356893  0.57200997     1.02300
O296        O  0.85746470  0.62294411  0.64137597    -0.85600
O297        O  0.81920457  0.56676293  0.65813416    -0.82700
C298        C  0.84672823  0.54597831  0.66602910     0.97800
O299        O  0.87397916  0.53261700  0.65153649    -0.82700
O300        O  0.93438751  0.52812034  0.61399176    -0.85300
C301        C  0.96353583  0.54934631  0.61790713     1.02300
O302        O  0.95302574  0.57794993  0.61549945    -0.78200
O303        O  0.89889275  0.63092629  0.60852555    -0.78300
C304        C  0.88586168  0.63925682  0.62972669     1.02300
Cr305      Cr  0.81644240  0.59100179  0.62537790     1.93700
Cr306      Cr  0.86694062  0.52820898  0.61534960     1.93200
Cr307      Cr  0.90218149  0.58904188  0.59269949     1.39100
O308        O  0.86153436  0.56951110  0.61140494    -1.23400
O309        O  0.17729623  0.10757992  0.89090389    -0.85600
O310        O  0.19529040  0.06104826  0.85719428    -0.82700
C311        C  0.20234955  0.03803022  0.87162341     0.97800
O312        O  0.17033392  0.02709755  0.88442884    -0.82700
O313        O  0.08425223  0.02064800  0.90565833    -0.85400
C314        C  0.08259989  0.03707347  0.92522908     1.02300
O315        O  0.09229533  0.06558671  0.92434186    -0.78100
O316        O  0.11425353  0.12292556  0.90793857    -0.78300
C317        C  0.15664063  0.11910117  0.90934765     1.02300
O318        O  0.10935774  0.13476911  0.85746089    -0.85600
O319        O  0.12245186  0.08073730  0.82552302    -0.82700
C320        C  0.12543290  0.05181637  0.81967841     0.97800
O321        O  0.12859455  0.03114683  0.83645790    -0.82700
O322        O  0.04423558  0.03056931  0.85866787    -0.85300
C323        C  0.01179600  0.04067901  0.87168977     1.02300
O324        O  0.01884199  0.06063281  0.88889926    -0.78200
O325        O  0.04410860  0.11710058  0.86984886    -0.78300
C326        C  0.06703307  0.13861861  0.86024378     1.02300
Cr327      Cr  0.14779529  0.09480700  0.85878453     1.93700
Cr328      Cr  0.10731685  0.03061117  0.87162973     1.93200
Cr329      Cr  0.07014431  0.09026179  0.89605361     1.39100
O330        O  0.10778899  0.07194247  0.87515216    -1.23400
O331        O  0.81698210  0.36126360  0.89993917    -0.85600
O332        O  0.77924058  0.41429677  0.88194358    -0.82700
C333        C  0.77457006  0.44300318  0.87729727     0.97800
O334        O  0.80805776  0.45893537  0.87052031    -0.82700
O335        O  0.86053700  0.46370461  0.91351473    -0.85400
C336        C  0.88876846  0.45567864  0.93000538     1.02300
O337        O  0.91537406  0.43303156  0.92653956    -0.78100
O338        O  0.86359784  0.38153902  0.92766920    -0.78300
C339        C  0.82841449  0.36619154  0.92252063     1.02300
O340        O  0.87441962  0.35703903  0.85541635    -0.85600
O341        O  0.83162202  0.41185958  0.83634265    -0.82700
C342        C  0.85918579  0.43249570  0.82835837     0.97800
O343        O  0.88708354  0.44536173  0.84298040    -0.82700
O344        O  0.93941622  0.45777545  0.88431750    -0.85300
C345        C  0.97178004  0.43855436  0.88367838     1.02300
O346        O  0.96408893  0.40945679  0.88487891    -0.78200
O347        O  0.91627806  0.35367455  0.88917391    -0.78300
C348        C  0.90471135  0.34329084  0.86811327     1.02300
Cr349      Cr  0.82940987  0.38789410  0.86937664     1.93700
Cr350      Cr  0.87341821  0.45282252  0.87823132     1.93200
Cr351      Cr  0.91142799  0.39547714  0.90509489     1.39100
O352        O  0.87141418  0.41177225  0.88404972    -1.23400
C353        C  0.90307110  0.22910528  0.85067182    -0.18100
C354        C  0.92609564  0.20035067  0.85005769    -0.20300
C355        C  0.97347085  0.19926523  0.85174060     0.20400
C356        C  0.99791628  0.22753513  0.85369121    -0.03200
C357        C  0.97459709  0.25662275  0.85455836    -0.06300
C358        C  0.92689002  0.25743960  0.85313023     0.20600
C359        C  0.99896678  0.28476391  0.85775003     0.18800
C360        C  0.04632456  0.28370755  0.85934327    -0.17800
C361        C  0.06937677  0.25502010  0.85817249    -0.20000
C362        C  0.04554558  0.22671073  0.85559232     0.20300
C363        C  0.06837902  0.19762494  0.85583878    -0.33000
C364        C  0.04416622  0.16919552  0.85485986     0.01000
C365        C  0.99665241  0.17040747  0.85239356    -0.24300
C366        C  0.90385345  0.28637031  0.85524795    -0.28900
C367        C  0.92795546  0.31436802  0.85939893     0.06700
C368        C  0.97552142  0.31329642  0.86030764    -0.27600
H369        H  0.86652842  0.22912888  0.84967230     0.11400
H370        H  0.90671267  0.17885818  0.84859057     0.12500
H371        H  0.06559889  0.30511118  0.86183284     0.11600
H372        H  0.10585371  0.25494360  0.85975974     0.10800
H373        H  0.10474277  0.19711362  0.85819468     0.16200
H374        H  0.97747634  0.14875159  0.85177167     0.13700
H375        H  0.86725789  0.28685119  0.85528831     0.15000
H376        H  0.99424445  0.33469975  0.86400308     0.14800
C377        C  0.77089199  0.47460852  0.75701155    -0.18100
C378        C  0.76867945  0.49346778  0.73563330    -0.20300
C379        C  0.80812674  0.50610588  0.72525293     0.20400
C380        C  0.85021700  0.49968146  0.73668438    -0.03200
C381        C  0.85243662  0.48069188  0.75828055    -0.06300
C382        C  0.81259941  0.46799692  0.76850597     0.20600
C383        C  0.89455810  0.47460825  0.76971294     0.18800
C384        C  0.93403126  0.48720791  0.75942387    -0.17800
C385        C  0.93192264  0.50550557  0.73786401    -0.20000
C386        C  0.89025193  0.51181695  0.72632963     0.20300
C387        C  0.88815645  0.52913420  0.70415501    -0.33000
C388        C  0.84657933  0.53494819  0.69219975     0.01000
C389        C  0.80649755  0.52406383  0.70319876    -0.24300
C390        C  0.81514310  0.44974356  0.79040285    -0.28900
C391        C  0.85698168  0.44462831  0.80241581     0.06700
C392        C  0.89648645  0.45675628  0.79161450    -0.27600
H393        H  0.73988894  0.46524555  0.76460085     0.11400
H394        H  0.73606795  0.49799477  0.72710975     0.12500
H395        H  0.96661940  0.48284523  0.76803480     0.11600
H396        H  0.96297189  0.51465011  0.73015009     0.10800
H397        H  0.91916799  0.53707512  0.69555446     0.16200
H398        H  0.77449879  0.52775488  0.69372231     0.12100
H399        H  0.78441661  0.44115576  0.79888288     0.15000
H400        H  0.92876913  0.45320619  0.80084409     0.14800
C401        C  0.18145856  0.97233536  0.76106514    -0.18100
C402        C  0.17527678  0.95384731  0.73965296    -0.20300
C403        C  0.14006827  0.96036565  0.72280210     0.20400
C404        C  0.11141614  0.98627150  0.72750448    -0.03200
C405        C  0.11806036  0.00524945  0.74895022    -0.06300
C406        C  0.15282731  0.99790101  0.76595642     0.20600
C407        C  0.08915464  0.03103134  0.75370303     0.18800
C408        C  0.05443025  0.03785895  0.73665968    -0.17800
C409        C  0.04778602  0.01904850  0.71550954    -0.20000
C410        C  0.07580183  0.99307735  0.71092630     0.20300
C411        C  0.06894257  0.97403756  0.68989441    -0.33000
C412        C  0.09774524  0.94842993  0.68454100     0.01000
C413        C  0.13325676  0.94169453  0.70127742    -0.24300
C414        C  0.15712943  0.01539593  0.78806111    -0.28900
C415        C  0.12717707  0.04020237  0.79357936     0.06700
C416        C  0.09417314  0.04859129  0.77590840    -0.27600
H417        H  0.20841225  0.96640834  0.77397430     0.11400
H418        H  0.19777224  0.93423755  0.73641559     0.12500
H419        H  0.03192467  0.05746577  0.73988513     0.11600
H420        H  0.02044285  0.02472136  0.70277849     0.10800
H421        H  0.04160813  0.97992823  0.67721146     0.16200
H422        H  0.15606647  0.92246574  0.69731152     0.12100
H423        H  0.18256198  0.00871434  0.80169359     0.15000
H424        H  0.07052550  0.06721198  0.78021370     0.14800
C425        C  0.87916570  0.75406657  0.63228060    -0.18100
C426        C  0.90233218  0.78264292  0.63107107    -0.20300
C427        C  0.94913689  0.78396158  0.63538510     0.20400
C428        C  0.97262297  0.75641398  0.64194073    -0.03200
C429        C  0.94920855  0.72743199  0.64302169    -0.06300
C430        C  0.90238927  0.72619785  0.63773741     0.20600
C431        C  0.97313951  0.69948749  0.64789776     0.18800
C432        C  0.01975734  0.70098036  0.65283471    -0.17800
C433        C  0.04284846  0.72968614  0.65198481    -0.20000
C434        C  0.01985328  0.75752415  0.64603617     0.20300
C435        C  0.04351872  0.78600811  0.64269149    -0.33000
C436        C  0.02050839  0.81311542  0.63473601     0.01000
C437        C  0.97317708  0.81197313  0.63185697    -0.24300
C438        C  0.88024828  0.69698661  0.63637530    -0.28900
C439        C  0.90447673  0.66896596  0.63974819     0.06700
C440        C  0.95062916  0.67045226  0.64614800    -0.27600
H441        H  0.84331872  0.75362797  0.62817178     0.11400
H442        H  0.88377194  0.80364141  0.62606103     0.12500
H443        H  0.03868639  0.67975676  0.65668460     0.11600
H444        H  0.07897370  0.72994907  0.65522314     0.10800
H445        H  0.07998233  0.78649944  0.64444536     0.16200
H446        H  0.95528641  0.83271300  0.62551611     0.12100
H447        H  0.84509278  0.69590301  0.63068139     0.15000
H448        H  0.96966166  0.64884286  0.64809585     0.14800
C449        C  0.61082687  0.43701153  0.89388077    -0.18100
C450        C  0.56822842  0.45104450  0.89470214    -0.20300
C451        C  0.56307417  0.48295275  0.88905235     0.20400
C452        C  0.60111898  0.50109056  0.88285567    -0.03200
C453        C  0.64413162  0.48689100  0.88197740    -0.06300
C454        C  0.64891146  0.45465740  0.88738245     0.20600
C455        C  0.68222548  0.50486657  0.87552494     0.18800
C456        C  0.67708153  0.53693873  0.87034284    -0.17800
C457        C  0.63442100  0.55105084  0.87129899    -0.20000
C458        C  0.59615770  0.53332315  0.87740250     0.20300
C459        C  0.55303765  0.54713663  0.87803488    -0.33000
C460        C  0.51493919  0.52895581  0.88379930     0.01000
C461        C  0.52041903  0.49693890  0.88941140    -0.24300
C462        C  0.69159310  0.44054898  0.88602734    -0.28900
C463        C  0.72968339  0.45816338  0.87924139     0.06700
C464        C  0.72470866  0.49040412  0.87419248    -0.27600
H465        H  0.61394212  0.41228896  0.89818247     0.11400
H466        H  0.53926119  0.43689968  0.89963531     0.12500
H467        H  0.70605339  0.55109315  0.86543018     0.11600
H468        H  0.63132408  0.57580324  0.86711820     0.10800
H469        H  0.54908033  0.57183699  0.87382298     0.16200
H470        H  0.49138499  0.48278094  0.89425990     0.12100
H471        H  0.69505229  0.41576971  0.89008087     0.15000
H472        H  0.75387137  0.50427273  0.86907651     0.14800
C473        C  0.13364259  0.43543906  0.86001389    -0.18100
C474        C  0.17550827  0.45051807  0.85825330    -0.20300
C475        C  0.18184667  0.48058674  0.86845897     0.20400
C476        C  0.14591499  0.49542082  0.88093863    -0.03200
C477        C  0.10365643  0.48024734  0.88265516    -0.06300
C478        C  0.09730701  0.45018620  0.87194938     0.20600
C479        C  0.06757892  0.49541098  0.89471826     0.18800
C480        C  0.07422000  0.52503206  0.90563443    -0.17800
C481        C  0.11609890  0.53999455  0.90401020    -0.20000
C482        C  0.15198364  0.52559135  0.89141832     0.20300
C483        C  0.19368249  0.54091880  0.88899321    -0.33000
C484        C  0.22954927  0.52645506  0.87630198     0.01000
C485        C  0.22337384  0.49615279  0.86625835    -0.24300
C486        C  0.05454297  0.43578747  0.87290162    -0.28900
C487        C  0.01807797  0.45151199  0.88393568     0.06700
C488        C  0.02519100  0.48100895  0.89521932    -0.27600
H489        H  0.12953130  0.41238897  0.85175674     0.11400
H490        H  0.20287340  0.43874503  0.84870466     0.12500
H491        H  0.04683388  0.53681964  0.91514601     0.11600
H492        H  0.12026003  0.56299591  0.91235142     0.10800
H493        H  0.19824203  0.56404910  0.89706312     0.16200
H494        H  0.25086245  0.48467867  0.85656645     0.12100
H495        H  0.04926096  0.41299466  0.86436590     0.15000
H496        H  0.99742135  0.49297359  0.90429749     0.14800
C497        C  0.86162370  0.94748180  0.83729708    -0.18100
C498        C  0.90483209  0.96092868  0.83790044    -0.20300
C499        C  0.91341382  0.98786977  0.85229798     0.20400
C500        C  0.87793435  0.00131922  0.86620613    -0.03200
C501        C  0.83434383  0.98771644  0.86563353    -0.06300
C502        C  0.82614237  0.96068368  0.85109903     0.20600
C503        C  0.79904661  0.00114476  0.87968239     0.18800
C504        C  0.80759945  0.02798816  0.89413989    -0.17800
C505        C  0.85067610  0.04141416  0.89472260    -0.20000
C506        C  0.88601781  0.02825428  0.88086261     0.20300
C507        C  0.92939750  0.04137406  0.88174374    -0.33000
C508        C  0.96531918  0.02798219  0.86829037     0.01000
C509        C  0.95687090  0.00133413  0.85334974    -0.24300
C510        C  0.78266269  0.94736548  0.85063420    -0.28900
C511        C  0.74710824  0.96067440  0.86454414     0.06700
C512        C  0.75581420  0.98756918  0.87906340    -0.27600
H513        H  0.85597403  0.92669053  0.82604157     0.11400
H514        H  0.93158690  0.95018805  0.82714339     0.12500
H515        H  0.78094608  0.03860049  0.90504806     0.11600
H516        H  0.85639334  0.06208101  0.90611576     0.10800
H517        H  0.93530787  0.06184943  0.89334143     0.16200
H518        H  0.98425944  0.99063006  0.84304723     0.12100
H519        H  0.77654496  0.92661713  0.83938728     0.15000
H520        H  0.72889414  0.99804064  0.88987472     0.14800
C521        C  0.34890928  0.01814478  0.83105481    -0.18100
C522        C  0.39150053  0.00394020  0.83065065    -0.20300
C523        C  0.40558737  0.98462741  0.85033952     0.20400
C524        C  0.37609871  0.97923459  0.87048506    -0.03200
C525        C  0.33304170  0.99358650  0.87089503    -0.06300
C526        C  0.31961606  0.01330250  0.85115542     0.20600
C527        C  0.30361229  0.98838198  0.89110180     0.18800
C528        C  0.31756063  0.96881683  0.91068460    -0.17800
C529        C  0.36027931  0.95470453  0.91032974    -0.20000
C530        C  0.38980629  0.95982450  0.89035189     0.20300
C531        C  0.43304924  0.94630673  0.89010201    -0.33000
C532        C  0.46316888  0.95210431  0.87035186     0.01000
C533        C  0.44887830  0.97107288  0.85040787    -0.24300
C534        C  0.27719712  0.02790294  0.85184186    -0.28900
C535        C  0.24751984  0.02288905  0.87186127     0.06700
C536        C  0.26089951  0.00289273  0.89137934    -0.27600
H537        H  0.33897150  0.03310288  0.81568002     0.11400
H538        H  0.41358716  0.00826858  0.81500686     0.12500
H539        H  0.29550568  0.96454329  0.92635227     0.11600
H540        H  0.37032255  0.93988446  0.92576884     0.10800
H541        H  0.44363647  0.93189153  0.90568772     0.16200
H542        H  0.47168473  0.97571337  0.83512631     0.12100
H543        H  0.26703784  0.04292624  0.83653346     0.15000
H544        H  0.23826828  0.99884763  0.90684785     0.14800
C545        C  0.54956598  0.69839153  0.85320038    -0.18100
C546        C  0.57248314  0.72714426  0.85188510    -0.20300
C547        C  0.54843544  0.75555696  0.85116308     0.20400
C548        C  0.50072189  0.75472570  0.85060913    -0.03200
C549        C  0.47755107  0.72562800  0.85151366    -0.06300
C550        C  0.50212398  0.69739540  0.85354781     0.20600
C551        C  0.42981158  0.72492550  0.85158532     0.18800
C552        C  0.40576148  0.75323670  0.85014960    -0.17800
C553        C  0.42864416  0.78197075  0.84961644    -0.20000
C554        C  0.47605205  0.78300735  0.85026074     0.20300
C555        C  0.49904663  0.81182567  0.85163066    -0.33000
C556        C  0.54659245  0.81306089  0.85322544     0.01000
C557        C  0.57111432  0.78471346  0.85213839    -0.24300
C558        C  0.47884320  0.66894706  0.85712157    -0.28900
C559        C  0.43127430  0.66822131  0.85807896     0.06700
C560        C  0.40698284  0.69615879  0.85440086    -0.27600
H561        H  0.56904363  0.67692132  0.85452284     0.11400
H562        H  0.60905000  0.72719017  0.85219032     0.12500
H563        H  0.36918760  0.75321599  0.85017042     0.11600
H564        H  0.40914635  0.80348499  0.84922986     0.10800
H565        H  0.47970588  0.83341276  0.85231678     0.16200
H566        H  0.60762384  0.78524832  0.85352861     0.12100
H567        H  0.49772758  0.64746530  0.86011882     0.15000
H568        H  0.37045296  0.69580829  0.85555546     0.14800
C569        C  0.62250457  0.42731463  0.60763347    -0.18100
C570        C  0.66570793  0.44072753  0.60681684    -0.20300
C571        C  0.67190871  0.47276036  0.61201914     0.20400
C572        C  0.63414651  0.49127952  0.61844417    -0.03200
C573        C  0.59072968  0.47760224  0.61979919    -0.06300
C574        C  0.58477265  0.44555593  0.61402080     0.20600
C575        C  0.55319799  0.49615244  0.62654628     0.18800
C576        C  0.55926458  0.52813439  0.63172945    -0.17800
C577        C  0.60207291  0.54173978  0.63004045    -0.20000
C578        C  0.63963786  0.52356657  0.62335323     0.20300
C579        C  0.68255463  0.53719534  0.62152207    -0.33000
C580        C  0.72059099  0.51901096  0.61537113     0.01000
C581        C  0.71504962  0.48665308  0.61084939    -0.24300
C582        C  0.54109346  0.43258943  0.61421019    -0.28900
C583        C  0.50354059  0.45109273  0.62072372     0.06700
C584        C  0.51004958  0.48265787  0.62737241    -0.27600
H585        H  0.61859256  0.40264322  0.60319371     0.11400
H586        H  0.69420775  0.42611254  0.60185601     0.12500
H587        H  0.53080239  0.54271286  0.63682704     0.11600
H588        H  0.60579170  0.56656537  0.63394548     0.10800
H589        H  0.68649894  0.56201649  0.62543630     0.16200
H590        H  0.74414257  0.47242124  0.60619056     0.12100
H591        H  0.53616178  0.40824476  0.60894023     0.15000
H592        H  0.48115664  0.49715400  0.63193274     0.14800
C593        C  0.12796712  0.55670063  0.60230558    -0.18100
C594        C  0.17000402  0.54162805  0.60073612    -0.20300
C595        C  0.17574058  0.51104599  0.60992566     0.20400
C596        C  0.13886123  0.49580002  0.62120184    -0.03200
C597        C  0.09657982  0.51102193  0.62286901    -0.06300
C598        C  0.09085937  0.54151819  0.61312547     0.20600
C599        C  0.05972090  0.49532585  0.63371193     0.18800
C600        C  0.06543833  0.46500900  0.64326663    -0.17800
C601        C  0.10723800  0.45003422  0.64170068    -0.20000
C602        C  0.14397458  0.46511775  0.63056091     0.20300
C603        C  0.18570665  0.44995646  0.62871384    -0.33000
C604        C  0.22288411  0.46486113  0.61768766     0.01000
C605        C  0.21758225  0.49543425  0.60814595    -0.24300
C606        C  0.04773322  0.55558243  0.61342410    -0.28900
C607        C  0.01045679  0.53916393  0.62300597     0.06700
C608        C  0.01721058  0.50956714  0.63387172    -0.27600
H609        H  0.12432852  0.58009844  0.59472907     0.11400
H610        H  0.19793603  0.55379851  0.59212832     0.12500
H611        H  0.03739223  0.45269414  0.65162467     0.11600
H612        H  0.11073308  0.42649471  0.64903878     0.10800
H613        H  0.18927150  0.42643654  0.63610354     0.16200
H614        H  0.24609482  0.50724876  0.59978165     0.12100
H615        H  0.04264329  0.57826477  0.60477505     0.15000
H616        H  0.98866469  0.49685841  0.64136923     0.14800
C617        C  0.28014067  0.52191168  0.75088886    -0.18100
C618        C  0.27550607  0.50209885  0.73014850    -0.20300
C619        C  0.30983705  0.48075788  0.72393783     0.20400
C620        C  0.34919888  0.47927339  0.73876757    -0.03200
C621        C  0.35413283  0.49961258  0.75950785    -0.06300
C622        C  0.31935970  0.52097095  0.76569826     0.20600
C623        C  0.39380990  0.49849297  0.77406244     0.18800
C624        C  0.42813446  0.47712869  0.76787764    -0.17800
C625        C  0.42331537  0.45707288  0.74732047    -0.20000
C626        C  0.38406458  0.45796845  0.73256060     0.20300
C627        C  0.37993528  0.43901924  0.71109721    -0.33000
C628        C  0.34167063  0.44151183  0.69566670     0.01000
C629        C  0.30637622  0.46188212  0.70253941    -0.24300
C630        C  0.32386700  0.54031023  0.78695115    -0.28900
C631        C  0.36272502  0.53849184  0.80211123     0.06700
C632        C  0.39803560  0.51811007  0.79496984    -0.27600
H633        H  0.25303542  0.53803286  0.75531748     0.11400
H634        H  0.24510952  0.50358812  0.71886673     0.12500
H635        H  0.45877315  0.47590043  0.77898253     0.11600
H636        H  0.45048762  0.44102995  0.74284558     0.10800
H637        H  0.40778421  0.42417176  0.70540385     0.16200
H638        H  0.27732740  0.46439886  0.69028085     0.12100
H639        H  0.29622545  0.55548873  0.79238064     0.15000
H640        H  0.42820418  0.51634660  0.80644166     0.14800
C641        C  0.81128309  0.92625128  0.61281887    -0.18100
C642        C  0.76881632  0.94069758  0.61196784    -0.20300
C643        C  0.76515413  0.97343365  0.60994263     0.20400
C644        C  0.80458790  0.99185839  0.60906758    -0.03200
C645        C  0.84735678  0.97732525  0.61023250    -0.06300
C646        C  0.85083982  0.94430430  0.61185528     0.20600
C647        C  0.88660787  0.99586281  0.60943801     0.18800
C648        C  0.88310014  0.02859242  0.60754724    -0.17800
C649        C  0.84078195  0.04294798  0.60618532    -0.20000
C650        C  0.80134484  0.02480430  0.60685596     0.20300
C651        C  0.75876861  0.03906901  0.60540796    -0.33000
C652        C  0.71926873  0.02090180  0.60647478     0.01000
C653        C  0.72278553  0.98807337  0.60876377    -0.24300
C654        C  0.89373257  0.92998735  0.61194520    -0.28900
C655        C  0.93295458  0.94844379  0.61061732     0.06700
C656        C  0.92883720  0.98139885  0.60996288    -0.27600
H657        H  0.81317495  0.90093550  0.61410693     0.11400
H658        H  0.73878766  0.92622279  0.61270404     0.12500
H659        H  0.91312578  0.04307709  0.60686048     0.11600
H660        H  0.83890354  0.06823192  0.60455461     0.10800
H661        H  0.75641062  0.06435079  0.60382240     0.16200
H662        H  0.69250008  0.97384420  0.60961192     0.12100
H663        H  0.89652426  0.90465174  0.61244955     0.15000
H664        H  0.95867268  0.99606153  0.60901995     0.14800
C665        C  0.33307849  0.94034751  0.57945082    -0.18100
C666        C  0.37499119  0.95524132  0.57769081    -0.20300
C667        C  0.38151644  0.98522986  0.58797347     0.20400
C668        C  0.34533127  0.00080972  0.59957455    -0.03200
C669        C  0.30300436  0.98576120  0.60135720    -0.06300
C670        C  0.29701463  0.95521516  0.59153780     0.20600
C671        C  0.26693844  0.00109003  0.61330327     0.18800
C672        C  0.27318989  0.03144653  0.62295948    -0.17800
C673        C  0.31516728  0.04634868  0.62121760    -0.20000
C674        C  0.35163879  0.03116288  0.60976595     0.20300
C675        C  0.39446836  0.04545016  0.60876693    -0.33000
C676        C  0.43099072  0.02941692  0.59806278     0.01000
C677        C  0.42388516  0.99960985  0.58728453    -0.24300
C678        C  0.25528338  0.93994668  0.59422284    -0.28900
C679        C  0.21936610  0.95492322  0.60647861     0.06700
C680        C  0.22541562  0.98566063  0.61567138    -0.27600
H681        H  0.32903222  0.91706272  0.57162811     0.11400
H682        H  0.40252735  0.94309094  0.56859056     0.12500
H683        H  0.24568209  0.04356445  0.63211984     0.11600
H684        H  0.31923654  0.06961149  0.62907939     0.10800
H685        H  0.39969714  0.06845155  0.61693889     0.16200
H686        H  0.45166588  0.98732910  0.57846996     0.12100
H687        H  0.25078473  0.91647941  0.58680166     0.15000
H688        H  0.19790394  0.99751928  0.62506138     0.14800
C689        C  0.52335495  0.96876476  0.74571730    -0.18100
C690        C  0.51942383  0.98732713  0.72428792    -0.20300
C691        C  0.55806212  0.99892848  0.71236919     0.20400
C692        C  0.60114871  0.99136749  0.72200265    -0.03200
C693        C  0.60514666  0.97212101  0.74343645    -0.06300
C694        C  0.56601921  0.96106970  0.75552325     0.20600
C695        C  0.64822962  0.96465969  0.75314358     0.18800
C696        C  0.68687638  0.97597131  0.74104386    -0.17800
C697        C  0.68291612  0.99496299  0.71984275    -0.20000
C698        C  0.64022811  0.00311603  0.71029678     0.20300
C699        C  0.63595100  0.02236572  0.68906937    -0.33000
C700        C  0.59311153  0.02945016  0.67898104     0.01000
C701        C  0.55436002  0.01757127  0.69082206    -0.24300
C702        C  0.57020481  0.94366066  0.77773315    -0.28900
C703        C  0.61298786  0.93701222  0.78798549     0.06700
C704        C  0.65184078  0.94718826  0.77533660    -0.27600
H705        H  0.49292552  0.96058121  0.75473141     0.11400
H706        H  0.48606022  0.99283124  0.71714477     0.12500
H707        H  0.72024396  0.97045240  0.74817350     0.11600
H708        H  0.71333214  0.00346073  0.71099477     0.10800
H709        H  0.66602463  0.03053702  0.67966007     0.16200
H710        H  0.52128538  0.02240556  0.68294608     0.12100
H711        H  0.54017731  0.93687179  0.78784968     0.15000
H712        H  0.68481490  0.94307442  0.78360674     0.14800
C713        C  0.55550780  0.25039761  0.63030072    -0.18100
C714        C  0.53394472  0.27958131  0.63132197    -0.20300
C715        C  0.48676612  0.28154281  0.63336397     0.20400
C716        C  0.46105053  0.25383776  0.63497847    -0.03200
C717        C  0.48286075  0.22426817  0.63382434    -0.06300
C718        C  0.53030132  0.22257245  0.63124849     0.20600
C719        C  0.45704586  0.19647940  0.63412386     0.18800
C720        C  0.40990402  0.19850313  0.63660798    -0.17800
C721        C  0.38836161  0.22777206  0.63797983    -0.20000
C722        C  0.41349266  0.25566209  0.63673793     0.20300
C723        C  0.39188228  0.28521592  0.63610342    -0.33000
C724        C  0.41731358  0.31292436  0.63335618     0.01000
C725        C  0.46485452  0.31071383  0.63273934    -0.24300
C726        C  0.55148143  0.19320710  0.62844016    -0.28900
C727        C  0.52576089  0.16555645  0.62751594     0.06700
C728        C  0.47863072  0.16733641  0.63072941    -0.27600
H729        H  0.59185018  0.24960155  0.62822531     0.11400
H730        H  0.55418243  0.30068668  0.63001569     0.12500
H731        H  0.38952086  0.17739974  0.63697718     0.11600
H732        H  0.35191385  0.22858257  0.63939365     0.10800
H733        H  0.35534363  0.28649370  0.63636458     0.16200
H734        H  0.48498226  0.33178828  0.63069657     0.12100
H735        H  0.58755404  0.19200632  0.62523136     0.15000
H736        H  0.45860199  0.14608468  0.62948041     0.14800
C737        C  0.98101189  0.54099919  0.46441822    -0.18100
C738        C  0.94757078  0.54723057  0.48202666    -0.20300
C739        C  0.94107159  0.52686682  0.50218430     0.20400
C740        C  0.96887355  0.50023155  0.50491295    -0.03200
C741        C  0.00311582  0.49427985  0.48742915    -0.06300
C742        C  0.00868442  0.51447245  0.46683737     0.20600
C743        C  0.03064236  0.46748084  0.49003245     0.18800
C744        C  0.02459766  0.44736775  0.51038115    -0.17800
C745        C  0.99097138  0.45349368  0.52790022    -0.20000
C746        C  0.96278436  0.47973242  0.52526489     0.20300
C747        C  0.93040116  0.48686176  0.54337381    -0.33000
C748        C  0.90508971  0.51454755  0.54160663     0.01000
C749        C  0.90899906  0.53363404  0.52044441    -0.24300
C750        C  0.03918346  0.50633577  0.44802427    -0.28900
C751        C  0.06281032  0.47791612  0.44937218     0.06700
C752        C  0.06110475  0.45986731  0.47116768    -0.27600
H753        H  0.98476822  0.55666187  0.44870005     0.11400
H754        H  0.92670289  0.56793072  0.47985301     0.12500
H755        H  0.04539116  0.42662203  0.51251808     0.11600
H756        H  0.98699979  0.43770012  0.54351647     0.10800
H757        H  0.92848397  0.47282790  0.56016365     0.16200
H758        H  0.89033140  0.55551161  0.51957062     0.12100
H759        H  0.03986240  0.51979933  0.43090566     0.15000
H760        H  0.07887791  0.43761862  0.47184666     0.14800
C761        C  0.27097844  0.34633623  0.46651175    -0.18100
C762        C  0.29583141  0.34524282  0.48882784    -0.20300
C763        C  0.27440977  0.34938973  0.51190514     0.20400
C764        C  0.22721153  0.35369713  0.51252073    -0.03200
C765        C  0.20208015  0.35463605  0.48998449    -0.06300
C766        C  0.22413850  0.35145766  0.46679829     0.20600
C767        C  0.15517951  0.36003940  0.49065065     0.18800
C768        C  0.13352666  0.36367436  0.51370251    -0.17800
C769        C  0.15839036  0.36288552  0.53595439    -0.20000
C770        C  0.20534664  0.35838450  0.53556579     0.20300
C771        C  0.23099990  0.35997769  0.55768397    -0.33000
C772        C  0.27842088  0.35716269  0.55716868     0.01000
C773        C  0.29961588  0.35081023  0.53421740    -0.24300
C774        C  0.19935600  0.35486441  0.44438377    -0.28900
C775        C  0.15285532  0.36165738  0.44496401     0.06700
C776        C  0.13097944  0.36314176  0.46827077    -0.27600
H777        H  0.28859189  0.34381283  0.44897977     0.11400
H778        H  0.33206573  0.34190484  0.48798991     0.12500
H779        H  0.09746714  0.36789646  0.51449754     0.11600
H780        H  0.14100823  0.36650400  0.55344475     0.10800
H781        H  0.21417979  0.36491931  0.57515423     0.16200
H782        H  0.33607357  0.34879722  0.53346796     0.12100
H783        H  0.21665445  0.35399997  0.42665109     0.15000
H784        H  0.09513421  0.36824949  0.46908361     0.14800
C785        C  0.88982586  0.25849511  0.36363668    -0.18100
C786        C  0.91290191  0.28701901  0.36573240    -0.20300
C787        C  0.95879461  0.28907021  0.35951663     0.20400
C788        C  0.98145018  0.26234345  0.35041758    -0.03200
C789        C  0.95817963  0.23338259  0.34849277    -0.06300
C790        C  0.91229371  0.23142094  0.35541555     0.20600
C791        C  0.98145036  0.20609743  0.34095930     0.18800
C792        C  0.02719017  0.20835816  0.33435547    -0.17800
C793        C  0.05007207  0.23712365  0.33592604    -0.20000
C794        C  0.02779423  0.26422019  0.34434328     0.20300
C795        C  0.05139342  0.29273133  0.34787223    -0.33000
C796        C  0.02929138  0.31901290  0.35802577     0.01000
C797        C  0.98282410  0.31703954  0.36328193    -0.24300
C798        C  0.89047662  0.20212596  0.35555294    -0.28900
C799        C  0.91417184  0.17460230  0.34953636     0.06700
C800        C  0.95935109  0.17683105  0.34169316    -0.27600
H801        H  0.85472231  0.25742361  0.36911275     0.11400
H802        H  0.89502804  0.30738534  0.37274377     0.12500
H803        H  0.04563032  0.18767081  0.32849459     0.11600
H804        H  0.08553845  0.23798445  0.33118562     0.10800
H805        H  0.08728337  0.29391412  0.34418578     0.16200
H806        H  0.96561832  0.33720132  0.37118118     0.12100
H807        H  0.85621687  0.20036695  0.36242898     0.15000
H808        H  0.97811453  0.15554342  0.33778067     0.14800
C809        C  0.98173362  0.03702229  0.52522333    -0.18100
C810        C  0.94800264  0.04753928  0.50897054    -0.20300
C811        C  0.93359657  0.02860180  0.48902540     0.20400
C812        C  0.95270828  0.99861726  0.48556566    -0.03200
C813        C  0.98743701  0.98838610  0.50151704    -0.06300
C814        C  0.00187397  0.00762153  0.52152901     0.20600
C815        C  0.00723113  0.95869272  0.49767614     0.18800
C816        C  0.99214851  0.93946561  0.47808175    -0.17800
C817        C  0.95779832  0.94969375  0.46216577    -0.20000
C818        C  0.93819778  0.97929114  0.46562463     0.20300
C819        C  0.90706891  0.99093409  0.44831957    -0.33000
C820        C  0.89247787  0.02205013  0.45012507     0.01000
C821        C  0.90310538  0.04003447  0.47131312    -0.24300
C822        C  0.03396291  0.99617200  0.53843648    -0.28900
C823        C  0.05039427  0.96555757  0.53580291     0.06700
C824        C  0.03955014  0.94783482  0.51454478    -0.27600
H825        H  0.99210060  0.05187401  0.54065322     0.11400
H826        H  0.93357721  0.07062684  0.51180513     0.12500
H827        H  0.00676932  0.91645907  0.47515231     0.11600
H828        H  0.94711697  0.93469508  0.44688713     0.10800
H829        H  0.89932192  0.97741529  0.43166369     0.16200
H830        H  0.89192974  0.06424277  0.47237633     0.12100
H831        H  0.04164290  0.00940550  0.55524066     0.15000
H832        H  0.05186829  0.92393548  0.51296332     0.14800
C833        C  0.64229467  0.13198553  0.47157603    -0.18100
C834        C  0.67050751  0.13363373  0.45073123    -0.20300
C835        C  0.71759702  0.13532156  0.45368737     0.20400
C836        C  0.73622711  0.13615352  0.47801265    -0.03200
C837        C  0.70768007  0.13449742  0.49910870    -0.06300
C838        C  0.66057280  0.13198503  0.49582414     0.20600
C839        C  0.72641666  0.13408230  0.52341642     0.18800
C840        C  0.77349000  0.13606246  0.52635700    -0.17800
C841        C  0.80170789  0.13764168  0.50551654    -0.20000
C842        C  0.78346288  0.13727268  0.48128099     0.20300
C843        C  0.81173160  0.13637265  0.46033079    -0.33000
C844        C  0.79365123  0.13395536  0.43598947     0.01000
C845        C  0.74638594  0.13453350  0.43282957    -0.24300
C846        C  0.63270234  0.12816946  0.51674262    -0.28900
C847        C  0.65105169  0.12652728  0.54110071     0.06700
C848        C  0.69800747  0.13034415  0.54425043    -0.27600
H849        H  0.60615382  0.13002737  0.46870348     0.11400
H850        H  0.65550525  0.13286287  0.43226464     0.12500
H851        H  0.78859900  0.13572628  0.54479737     0.11600
H852        H  0.83794884  0.13844174  0.50836333     0.10800
H853        H  0.84802960  0.13581573  0.46307859     0.16200
H854        H  0.73199577  0.13214059  0.41429055     0.12100
H855        H  0.59667769  0.12514881  0.51392449     0.15000
H856        H  0.71272156  0.12862937  0.56274398     0.14800
C857        C  0.31341457  0.64045738  0.01196058    -0.18100
C858        C  0.28664640  0.64019899  0.03347764    -0.20300
C859        C  0.23945964  0.63730660  0.03166012     0.20400
C860        C  0.21918287  0.63580095  0.00773426    -0.03200
C861        C  0.24620560  0.63618004  0.98598644    -0.06300
C862        C  0.29358198  0.63789039  0.98814733     0.20600
C863        C  0.22587615  0.63335404  0.96215063     0.18800
C864        C  0.17871859  0.63099406  0.96027799    -0.17800
C865        C  0.15206819  0.63056994  0.98172820    -0.20000
C866        C  0.17201043  0.63251961  0.00550155     0.20300
C867        C  0.14563611  0.62974451  0.02700894    -0.33000
C868        C  0.16541956  0.62959257  0.05101567     0.01000
C869        C  0.21242174  0.63438267  0.05320958    -0.24300
C870        C  0.32030153  0.63532199  0.96659239    -0.28900
C871        C  0.30039775  0.63097228  0.94279317     0.06700
C872        C  0.25303207  0.63119319  0.94071903    -0.27600
H873        H  0.34978744  0.64188038  0.01398692     0.11400
H874        H  0.30299077  0.64146521  0.05157611     0.12500
H875        H  0.16247002  0.62868220  0.94221612     0.11600
H876        H  0.11582430  0.62795958  0.97972448     0.10800
H877        H  0.10954765  0.62618689  0.02494155     0.16200
H878        H  0.22821833  0.63397051  0.07148347     0.12100
H879        H  0.35677656  0.63505105  0.96848816     0.15000
H880        H  0.23732701  0.62729721  0.92266781     0.14800
C881        C  0.01826609  0.54229266  0.98066334    -0.18100
C882        C  0.98384117  0.53551729  0.96354845    -0.20300
C883        C  0.95476677  0.51007899  0.96750872     0.20400
C884        C  0.96036722  0.49128467  0.98894502    -0.03200
C885        C  0.99551255  0.49778701  0.00597000    -0.06300
C886        C  0.02428863  0.52359556  0.00189653     0.20600
C887        C  0.00119425  0.47892059  0.02736290     0.18800
C888        C  0.97214127  0.45347303  0.03131271    -0.17800
C889        C  0.93767031  0.44673797  0.01422420    -0.20000
C890        C  0.93159379  0.46547752  0.99302362     0.20300
C891        C  0.89952040  0.45744843  0.97488405    -0.33000
C892        C  0.89719592  0.47411591  0.95240328     0.01000
C893        C  0.92245354  0.50165093  0.94952387    -0.24300
C894        C  0.05645461  0.53154995  0.02001559    -0.28900
C895        C  0.05926792  0.51455987  0.04233086     0.06700
C896        C  0.03372330  0.48718194  0.04526794    -0.27600
H897        H  0.03999979  0.56228479  0.97738346     0.11400
H898        H  0.98017785  0.55001494  0.94711161     0.12500
H899        H  0.97588427  0.43890863  0.04771171     0.11600
H900        H  0.91601064  0.42670526  0.01746761     0.10800
H901        H  0.88062146  0.43578726  0.97672993     0.16200
H902        H  0.92142968  0.51395715  0.93185981     0.12100
H903        H  0.07551886  0.55314572  0.01816412     0.15000
H904        H  0.03505518  0.47470229  0.06285047     0.14800
C905        C  0.02516102  0.50072557  0.23355498    -0.18100
C906        C  0.02489672  0.48099747  0.25429914    -0.20300
C907        C  0.06547932  0.47257787  0.26613305     0.20400
C908        C  0.10679670  0.48436624  0.25711843    -0.03200
C909        C  0.10701982  0.50465788  0.23627686    -0.06300
C910        C  0.06599444  0.51255489  0.22436548     0.20600
C911        C  0.14820939  0.51660165  0.22712440     0.18800
C912        C  0.18872478  0.50844387  0.23927043    -0.17800
C913        C  0.18848059  0.48848618  0.26004189    -0.20000
C914        C  0.14773754  0.47612321  0.26905121     0.20300
C915        C  0.14694163  0.45659018  0.29024109    -0.33000
C916        C  0.10560702  0.44574677  0.29980310     0.01000
C917        C  0.06521416  0.45344926  0.28733487    -0.24300
C918        C  0.06649760  0.53113068  0.20288255    -0.28900
C919        C  0.10739302  0.54191944  0.19280098     0.06700
C920        C  0.14815461  0.53540540  0.20547243    -0.27600
H921        H  0.99338872  0.50657684  0.22458341     0.11400
H922        H  0.99287923  0.47228219  0.26108296     0.12500
H923        H  0.22070673  0.51732365  0.23258981     0.11600
H924        H  0.22023109  0.48268897  0.26905343     0.10800
H925        H  0.17802318  0.45167163  0.30028078     0.16200
H926        H  0.03323751  0.44578164  0.29497855     0.12100
H927        H  0.03502174  0.53588654  0.19315142     0.15000
H928        H  0.17987652  0.54308617  0.19757007     0.14800
C929        C  0.77452734  0.01043104  0.24991986    -0.18100
C930        C  0.77370889  0.99079751  0.22887720    -0.20300
C931        C  0.81310602  0.97547823  0.22089434     0.20400
C932        C  0.85371309  0.97998280  0.23438201    -0.03200
C933        C  0.85456200  0.99987135  0.25555739    -0.06300
C934        C  0.81477413  0.01521249  0.26341113     0.20600
C935        C  0.89525367  0.00430299  0.26889180     0.18800
C936        C  0.93470366  0.98906664  0.26098897    -0.17800
C937        C  0.93399695  0.96974977  0.23988903    -0.20000
C938        C  0.89376315  0.96515109  0.22641886     0.20300
C939        C  0.89338694  0.94710930  0.20451715    -0.33000
C940        C  0.85355302  0.94346711  0.19039447     0.01000
C941        C  0.81315454  0.95690435  0.19908744    -0.24300
C942        C  0.81574295  0.03429241  0.28496785    -0.28900
C943        C  0.85593073  0.03777993  0.29888303     0.06700
C944        C  0.89566263  0.02322720  0.29028570    -0.27600
H945        H  0.74359816  0.02187902  0.25565422     0.11400
H946        H  0.74226650  0.98778735  0.21871857     0.12500
H947        H  0.96618104  0.99214866  0.27111060     0.11600
H948        H  0.96504142  0.95856432  0.23399740     0.10800
H949        H  0.92474287  0.93729794  0.19760888     0.16200
H950        H  0.78269288  0.95495965  0.18787089     0.12100
H951        H  0.78482753  0.04492518  0.29165534     0.15000
H952        H  0.92678558  0.02567487  0.30088363     0.14800
C953        C  0.06418371  0.75786751  0.13994510    -0.18100
C954        C  0.04095767  0.78645368  0.13904307    -0.20300
C955        C  0.99355973  0.78714909  0.13825829     0.20400
C956        C  0.96917140  0.75878390  0.13914762    -0.03200
C957        C  0.99268474  0.72983630  0.13984535    -0.06300
C958        C  0.04045817  0.72937846  0.13995909     0.20600
C959        C  0.96843212  0.70139108  0.13909254     0.18800
C960        C  0.92098120  0.70212507  0.13869576    -0.17800
C961        C  0.89770180  0.73076765  0.13826164    -0.20000
C962        C  0.92142181  0.75928467  0.13803685     0.20300
C963        C  0.89847774  0.78812896  0.13532756    -0.33000
C964        C  0.92291026  0.81625960  0.13316401     0.01000
C965        C  0.97028039  0.81558284  0.13522806    -0.24300
C966        C  0.06363178  0.70054337  0.13864466    -0.28900
C967        C  0.03960510  0.67224643  0.13660646     0.06700
C968        C  0.99206033  0.67284113  0.13734570    -0.27600
H969        H  0.10075164  0.75803260  0.13994992     0.11400
H970        H  0.06017526  0.80806798  0.13836816     0.12500
H971        H  0.90180571  0.68047645  0.13813909     0.11600
H972        H  0.86115733  0.73058670  0.13739553     0.10800
H973        H  0.86207563  0.78847279  0.13313099     0.16200
H974        H  0.98917962  0.83721182  0.13316576     0.12100
H975        H  0.10013475  0.70024954  0.13729057     0.15000
H976        H  0.97344446  0.65107657  0.13517927     0.14800
C977        C  0.99053056  0.95558074  0.96372047    -0.18100
C978        C  0.95962321  0.94645882  0.98181555    -0.20300
C979        C  0.94920230  0.96669392  0.00160795     0.20400
C980        C  0.96914566  0.99667586  0.00299876    -0.03200
C981        C  0.00041338  0.00582374  0.98477932    -0.06300
C982        C  0.01134121  0.98505349  0.96517645     0.20600
C983        C  0.02103885  0.03557007  0.98630938     0.18800
C984        C  0.00996780  0.05598363  0.00592278    -0.17800
C985        C  0.97946328  0.04668754  0.02427379    -0.20000
C986        C  0.95927843  0.01695834  0.02314501     0.20300
C987        C  0.93204296  0.00621210  0.04264154    -0.33000
C988        C  0.91543558  0.97545517  0.04210598     0.01000
C989        C  0.92178546  0.95655245  0.02098816    -0.24300
C990        C  0.04198715  0.99439479  0.94697253    -0.28900
C991        C  0.06118092  0.02448707  0.94774793     0.06700
C992        C  0.05152342  0.04464951  0.96785675    -0.27600
H993        H  0.99836914  0.93950810  0.94866474     0.11400
H994        H  0.94458102  0.92333685  0.98062390     0.12500
H995        H  0.02529330  0.07900824  0.00721876     0.11600
H996        H  0.97227372  0.06252311  0.03957652     0.10800
H997        H  0.92780110  0.02042256  0.05926218     0.16200
H998        H  0.90924610  0.93264194  0.02092274     0.12100
H999        H  0.04886739  0.97883929  0.93142078     0.15000
H1000       H  0.06586984  0.06803495  0.96848535     0.14800
C1001       C  0.69464350  0.85113690  0.01910797    -0.18100
C1002       C  0.67063356  0.85002458  0.99649185    -0.20300
C1003       C  0.69273744  0.85481683  0.97370444     0.20400
C1004       C  0.73964938  0.86041932  0.97372294    -0.03200
C1005       C  0.76393936  0.86141256  0.99657432    -0.06300
C1006       C  0.74132109  0.85698844  0.01944441     0.20600
C1007       C  0.81064123  0.86762653  0.99653448     0.18800
C1008       C  0.83282002  0.87251472  0.97380273    -0.17800
C1009       C  0.80879056  0.87168524  0.95125545    -0.20000
C1010       C  0.76213277  0.86584496  0.95097986     0.20300
C1011       C  0.73743376  0.86627001  0.92845711    -0.33000
C1012       C  0.69037123  0.86130627  0.92823373     0.01000
C1013       C  0.66852920  0.85504998  0.95101695    -0.24300
C1014       C  0.76546752  0.85947888  0.04219075    -0.28900
C1015       C  0.81195394  0.86651821  0.04229710     0.06700
C1016       C  0.83421646  0.86983676  0.01922410    -0.27600
H1017       H  0.67654926  0.84776406  0.03638215     0.11400
H1018       H  0.63455999  0.84581510  0.99685895     0.12500
H1019       H  0.86871389  0.87745476  0.97348339     0.11600
H1020       H  0.82665016  0.87597756  0.93403355     0.10800
H1021       H  0.75468055  0.87146678  0.91119216     0.16200
H1022       H  0.63225737  0.85166506  0.95127166     0.12100
H1023       H  0.74777127  0.85726854  0.05971955     0.15000
H1024       H  0.86997981  0.87525464  0.01886548     0.14800
C1025       C  0.67882428  0.34952262  0.96231656    -0.18100
C1026       C  0.65273356  0.34921434  0.98410846    -0.20300
C1027       C  0.67348473  0.34939165  0.00776520     0.20400
C1028       C  0.72106121  0.34873259  0.00936516    -0.03200
C1029       C  0.74739240  0.34895202  0.98736734    -0.06300
C1030       C  0.72625863  0.34994400  0.96368446     0.20600
C1031       C  0.79490158  0.34965962  0.98916620     0.18800
C1032       C  0.81575564  0.34901964  0.01272128    -0.17800
C1033       C  0.78979608  0.34886927  0.03440293    -0.20000
C1034       C  0.74247538  0.34932899  0.03295422     0.20300
C1035       C  0.71643956  0.35196128  0.05467234    -0.33000
C1036       C  0.66904856  0.35420096  0.05334500     0.01000
C1037       C  0.64772738  0.35180450  0.02977307    -0.24300
C1038       C  0.75288269  0.35294647  0.94199566    -0.28900
C1039       C  0.80032160  0.35538000  0.94385341     0.06700
C1040       C  0.82084202  0.35261354  0.96751964    -0.27600
H1041       H  0.66183864  0.35021467  0.94438162     0.11400
H1042       H  0.61625361  0.34966848  0.98244570     0.12500
H1043       H  0.85223698  0.34950643  0.01440261     0.11600
H1044       H  0.80679560  0.34922802  0.05234245     0.10800
H1045       H  0.73330300  0.35375437  0.07261273     0.16200
H1046       H  0.61130229  0.35382249  0.02840957     0.12100
H1047       H  0.73660594  0.35543344  0.92395800     0.15000
H1048       H  0.85726214  0.35438221  0.96924859     0.14800
C1049       C  0.42204232  0.53263712  0.01312408    -0.18100
C1050       C  0.45633750  0.52379403  0.02953547    -0.20300
C1051       C  0.48167051  0.49663017  0.02493928     0.20400
C1052       C  0.47159177  0.47749870  0.00418008    -0.03200
C1053       C  0.43697471  0.48635877  0.98766766    -0.06300
C1054       C  0.41288481  0.51445777  0.99190324     0.20600
C1055       C  0.42839269  0.46820930  0.96610726     0.18800
C1056       C  0.45293007  0.44055645  0.96194747    -0.17800
C1057       C  0.48672423  0.43137676  0.97869231    -0.20000
C1058       C  0.49669275  0.44991149  0.99966298     0.20300
C1059       C  0.53049676  0.44099408  0.01656424    -0.33000
C1060       C  0.53944484  0.45949984  0.03773516     0.01000
C1061       C  0.51616737  0.48789416  0.04117974    -0.24300
C1062       C  0.38361249  0.52559257  0.97354692    -0.28900
C1063       C  0.38020600  0.50975799  0.95075103     0.06700
C1064       C  0.39885822  0.47977633  0.94792330    -0.27600
H1065       H  0.40378718  0.55423823  0.01654872     0.11400
H1066       H  0.46344852  0.53841198  0.04565372     0.12500
H1067       H  0.44682257  0.42649034  0.94540620     0.11600
H1068       H  0.50553235  0.41007368  0.97504183     0.10800
H1069       H  0.54813808  0.41895753  0.01393564     0.16200
H1070       H  0.52253693  0.50222531  0.05756711     0.12100
H1071       H  0.36911095  0.54886116  0.97537922     0.15000
H1072       H  0.39626917  0.46787868  0.93005895     0.14800
C1073       C  0.84876563  0.45059087  0.13567533    -0.18100
C1074       C  0.89056408  0.46563794  0.13737273    -0.20300
C1075       C  0.89619245  0.49589252  0.12770042     0.20400
C1076       C  0.85923529  0.51136913  0.11649175    -0.03200
C1077       C  0.81693424  0.49603236  0.11464306    -0.06300
C1078       C  0.81188578  0.46547697  0.12422556     0.20600
C1079       C  0.77992066  0.51109011  0.10306744     0.18800
C1080       C  0.78559069  0.54159374  0.09371996    -0.17800
C1081       C  0.82757514  0.55679302  0.09552258    -0.20000
C1082       C  0.86478858  0.54184062  0.10672616     0.20300
C1083       C  0.90774357  0.55624527  0.10762099    -0.33000
C1084       C  0.94515521  0.54022467  0.11782731     0.01000
C1085       C  0.93859437  0.51040692  0.12836087    -0.24300
C1086       C  0.77007882  0.45026229  0.12232309    -0.28900
C1087       C  0.73272253  0.46492989  0.11095097     0.06700
C1088       C  0.73801232  0.49540750  0.10119298    -0.27600
H1089       H  0.84537039  0.42714775  0.14319282     0.11400
H1090       H  0.91863989  0.45346970  0.14603362     0.12500
H1091       H  0.75760269  0.55364754  0.08486605     0.11600
H1092       H  0.83104700  0.58016443  0.08790008     0.10800
H1093       H  0.91253517  0.57907881  0.09921471     0.16200
H1094       H  0.96708645  0.49791247  0.13633348     0.12100
H1095       H  0.76658608  0.42687479  0.12995566     0.15000
H1096       H  0.70941357  0.50712726  0.09263358     0.14800
C1097       C  0.35690998  0.54836607  0.12994157    -0.18100
C1098       C  0.39934388  0.53384921  0.13062708    -0.20300
C1099       C  0.40399731  0.50210279  0.12409485     0.20400
C1100       C  0.36541869  0.48479814  0.11689759    -0.03200
C1101       C  0.32245297  0.49936460  0.11652427    -0.06300
C1102       C  0.31824170  0.53136378  0.12292853     0.20600
C1103       C  0.28377999  0.48191991  0.10970975     0.18800
C1104       C  0.28848037  0.45024470  0.10298598    -0.17800
C1105       C  0.33110181  0.43598946  0.10292302    -0.20000
C1106       C  0.36978698  0.45302501  0.10984589     0.20300
C1107       C  0.41279832  0.43902203  0.10944030    -0.33000
C1108       C  0.45152369  0.45615770  0.11644911     0.01000
C1109       C  0.44664437  0.48757156  0.12415636    -0.24300
C1110       C  0.27544899  0.54570706  0.12237038    -0.28900
C1111       C  0.23655324  0.52830538  0.11610639     0.06700
C1112       C  0.24109949  0.49638675  0.10981467    -0.27600
H1113       H  0.35432919  0.57293853  0.13497413     0.11400
H1114       H  0.42859642  0.54752828  0.13609898     0.12500
H1115       H  0.25918849  0.43651561  0.09765231     0.11600
H1116       H  0.33379720  0.41157354  0.09745227     0.10800
H1117       H  0.41623326  0.41485139  0.10338974     0.16200
H1118       H  0.47630445  0.50112316  0.12918742     0.12100
H1119       H  0.27225526  0.57024899  0.12743078     0.15000
H1120       H  0.21139059  0.48284910  0.10483804     0.14800
C1121       C  0.57337421  0.95141119  0.12074490    -0.18100
C1122       C  0.61643899  0.93836715  0.11850710    -0.20300
C1123       C  0.65424095  0.95767626  0.11514875     0.20400
C1124       C  0.64870771  0.99046652  0.11376666    -0.03200
C1125       C  0.60507840  0.00362007  0.11557647    -0.06300
C1126       C  0.56735130  0.98397024  0.11933540     0.20600
C1127       C  0.59915212  0.03632784  0.11334659     0.18800
C1128       C  0.63701179  0.05559756  0.10981588    -0.17800
C1129       C  0.68044426  0.04261203  0.10866506    -0.20000
C1130       C  0.68670005  0.01005442  0.11062345     0.20300
C1131       C  0.73017187  0.99670365  0.10970832    -0.33000
C1132       C  0.73578431  0.96396410  0.11120735     0.01000
C1133       C  0.69751588  0.94470002  0.11349341    -0.24300
C1134       C  0.52408227  0.99709198  0.12092692    -0.28900
C1135       C  0.51777512  0.02944654  0.11779116     0.06700
C1136       C  0.55538240  0.04899759  0.11411575    -0.27600
H1137       H  0.54473622  0.93601716  0.12339269     0.11400
H1138       H  0.62022344  0.91312071  0.11958583     0.12500
H1139       H  0.63304793  0.08076393  0.10801417     0.11600
H1140       H  0.70910792  0.05801260  0.10613433     0.10800
H1141       H  0.75949968  0.01167952  0.10782000     0.16200
H1142       H  0.70152517  0.91947822  0.11485330     0.12100
H1143       H  0.49500243  0.98193228  0.12311666     0.15000
H1144       H  0.55038814  0.07396296  0.11140955     0.14800
C1145       C  0.13606612  0.93103668  0.09075922    -0.18100
C1146       C  0.17805440  0.94591513  0.08878913    -0.20300
C1147       C  0.18738748  0.97319562  0.10260069     0.20400
C1148       C  0.15420097  0.98529413  0.11882820    -0.03200
C1149       C  0.11191287  0.97031893  0.12081940    -0.06300
C1150       C  0.10267619  0.94317210  0.10656612     0.20600
C1151       C  0.07838760  0.98311762  0.13646919     0.18800
C1152       C  0.08782768  0.01005782  0.15060410    -0.17800
C1153       C  0.12983503  0.02469243  0.14881119    -0.20000
C1154       C  0.16290310  0.01271402  0.13276088     0.20300
C1155       C  0.20440354  0.02788744  0.13032676    -0.33000
C1156       C  0.23781050  0.01618604  0.11418733     0.01000
C1157       C  0.22912155  0.98869689  0.10040372    -0.24300
C1158       C  0.05954786  0.92956858  0.10752136    -0.28900
C1159       C  0.02539970  0.94341292  0.12193962     0.06700
C1160       C  0.03533249  0.96963501  0.13684701    -0.27600
H1161       H  0.12945828  0.91027969  0.07961140     0.11400
H1162       H  0.20307116  0.93625285  0.07627686     0.12500
H1163       H  0.06249368  0.02008324  0.16273308     0.11600
H1164       H  0.13623558  0.04568480  0.15972704     0.10800
H1165       H  0.21069710  0.04888700  0.14126251     0.16200
H1166       H  0.25471993  0.97937959  0.08807164     0.12100
H1167       H  0.05159157  0.90966137  0.09564914     0.15000
H1168       H  0.00885523  0.98037839  0.14783547     0.14800
C1169       C  0.56805360  0.23079442  0.13810528    -0.18100
C1170       C  0.54704039  0.20134947  0.13742339    -0.20300
C1171       C  0.49972997  0.19891907  0.13660045     0.20400
C1172       C  0.47331874  0.22639879  0.13763618    -0.03200
C1173       C  0.49457425  0.25617697  0.13820729    -0.06300
C1174       C  0.54218794  0.25840878  0.13791582     0.20600
C1175       C  0.46814350  0.28367625  0.13783889     0.18800
C1176       C  0.42083529  0.28121538  0.13818087    -0.17800
C1177       C  0.39983047  0.25178103  0.13775789    -0.20000
C1178       C  0.42570177  0.22421177  0.13689947     0.20300
C1179       C  0.40487365  0.19468682  0.13407477    -0.33000
C1180       C  0.43106783  0.16732746  0.13141780     0.01000
C1181       C  0.47849550  0.16964525  0.13354649    -0.24300
C1182       C  0.56297944  0.28807572  0.13612521    -0.28900
C1183       C  0.53672831  0.31553792  0.13408024     0.06700
C1184       C  0.48932449  0.31306923  0.13584322    -0.27600
H1185       H  0.60460819  0.23196180  0.13802535     0.11400
H1186       H  0.56786640  0.18046668  0.13683624     0.12500
H1187       H  0.40000083  0.30210497  0.13807326     0.11600
H1188       H  0.36327562  0.25062007  0.13734880     0.10800
H1189       H  0.36841824  0.19325775  0.13245535     0.16200
H1190       H  0.49908805  0.14873543  0.13178878     0.12100
H1191       H  0.59941904  0.28957854  0.13469945     0.15000
H1192       H  0.46868103  0.33400245  0.13447974     0.14800
C1193       C  0.29955565  0.12904059  0.95819414    -0.18100
C1194       C  0.32256759  0.12855945  0.98112861    -0.20300
C1195       C  0.29871760  0.12692918  0.00365977     0.20400
C1196       C  0.25109250  0.12646404  0.00302404    -0.03200
C1197       C  0.22776848  0.12738739  0.97980046    -0.06300
C1198       C  0.25214097  0.12818452  0.95725793     0.20600
C1199       C  0.18014808  0.12655266  0.97914098     0.18800
C1200       C  0.15629306  0.12501476  0.00167344    -0.17800
C1201       C  0.17934187  0.12371758  0.02458463    -0.20000
C1202       C  0.22678633  0.12415971  0.02551853     0.20300
C1203       C  0.25028177  0.12140780  0.04843009    -0.33000
C1204       C  0.29796105  0.12130963  0.04928564     0.01000
C1205       C  0.32171712  0.12474324  0.02669288    -0.24300
C1206       C  0.22880878  0.12707918  0.93422484    -0.28900
C1207       C  0.18121077  0.12566504  0.93331756     0.06700
C1208       C  0.15725410  0.12614879  0.95600519    -0.27600
H1209       H  0.31893619  0.12970339  0.94114112     0.11400
H1210       H  0.35915917  0.12887858  0.98121121     0.12500
H1211       H  0.11971182  0.12423017  0.00156786     0.11600
H1212       H  0.15998898  0.12198959  0.04159557     0.10800
H1213       H  0.23143005  0.11859249  0.06552785     0.16200
H1214       H  0.35832032  0.12426769  0.02686758     0.12100
H1215       H  0.24776619  0.12645477  0.91701182     0.15000
H1216       H  0.12072013  0.12449764  0.95571657     0.14800
C1217       C  0.50269089  0.94917267  0.02553940    -0.18100
C1218       C  0.53284762  0.93913088  0.00718264    -0.20300
C1219       C  0.54046859  0.95752844  0.98597588     0.20400
C1220       C  0.51823933  0.98664985  0.98351184    -0.03200
C1221       C  0.48744080  0.99659539  0.00185784    -0.06300
C1222       C  0.47946600  0.97769428  0.02290163     0.20600
C1223       C  0.46448978  0.02539137  0.99904968     0.18800
C1224       C  0.47299225  0.04418617  0.97820721    -0.17800
C1225       C  0.50344135  0.03431706  0.96001587    -0.20000
C1226       C  0.52580384  0.00546217  0.96237493     0.20300
C1227       C  0.55365321  0.99438390  0.94329903    -0.33000
C1228       C  0.57299433  0.96429075  0.94466013     0.01000
C1229       C  0.56798243  0.94661203  0.96658992    -0.24300
C1230       C  0.44922299  0.98800296  0.04120034    -0.28900
C1231       C  0.42714382  0.01712870  0.03883365     0.06700
C1232       C  0.43423872  0.03529428  0.01740081    -0.27600
H1233       H  0.49726085  0.93451978  0.04169769     0.11400
H1234       H  0.54972835  0.91674298  0.00940230     0.12500
H1235       H  0.45589347  0.06648225  0.97590474     0.11600
H1236       H  0.50891302  0.04900525  0.94388445     0.10800
H1237       H  0.55734154  0.00825033  0.92654199     0.16200
H1238       H  0.58284580  0.92341642  0.96786496     0.12100
H1239       H  0.44456069  0.97401808  0.05781879     0.15000
H1240       H  0.41783761  0.05792042  0.01552144     0.14800
C1241       C  0.64881795  0.63973098  0.50483478    -0.18100
C1242       C  0.67345895  0.63859304  0.52732260    -0.20300
C1243       C  0.72041184  0.63356869  0.52729367     0.20400
C1244       C  0.74267386  0.63075834  0.50414567    -0.03200
C1245       C  0.71777067  0.63171651  0.48144687    -0.06300
C1246       C  0.67049318  0.63575344  0.48176492     0.20600
C1247       C  0.74007640  0.62738157  0.45849588     0.18800
C1248       C  0.78708756  0.62325136  0.45831911    -0.17800
C1249       C  0.81165342  0.62254158  0.48065312    -0.20000
C1250       C  0.78967958  0.62577357  0.50363269     0.20300
C1251       C  0.81385563  0.62270493  0.52603704    -0.33000
C1252       C  0.79203361  0.62359761  0.54937014     0.01000
C1253       C  0.74520827  0.62997557  0.54983736    -0.24300
C1254       C  0.64567578  0.63437465  0.45915388    -0.28900
C1255       C  0.66752429  0.62853649  0.43621537     0.06700
C1256       C  0.71497082  0.62590425  0.43618004    -0.27600
H1257       H  0.61255750  0.64298094  0.50553583     0.11400
H1258       H  0.65558021  0.64099309  0.54478280     0.12500
H1259       H  0.80480394  0.61991874  0.44089752     0.11600
H1260       H  0.84779980  0.61866291  0.47996738     0.10800
H1261       H  0.84982592  0.61810393  0.52515465     0.16200
H1262       H  0.72778143  0.63062380  0.56753376     0.12100
H1263       H  0.60917651  0.63614605  0.45961161     0.15000
H1264       H  0.73237208  0.62132718  0.41882374     0.14800
C1265       C  0.46259567  0.53869140  0.52698617    -0.18100
C1266       C  0.49318133  0.55090950  0.50987836    -0.20300
C1267       C  0.51339599  0.53125143  0.49216725     0.20400
C1268       C  0.50425785  0.49878427  0.49227704    -0.03200
C1269       C  0.47328688  0.48650661  0.50942322    -0.06300
C1270       C  0.45187642  0.50666332  0.52658686     0.20600
C1271       C  0.46306862  0.45419664  0.50904105     0.18800
C1272       C  0.48510596  0.43429488  0.49216662    -0.17800
C1273       C  0.51551830  0.44654271  0.47495532    -0.20000
C1274       C  0.52438300  0.47883297  0.47448556     0.20300
C1275       C  0.55025783  0.49183989  0.45543997    -0.33000
C1276       C  0.55549970  0.52450109  0.45386404     0.01000
C1277       C  0.53983940  0.54382231  0.47321716    -0.24300
C1278       C  0.42062119  0.49436336  0.54331664    -0.28900
C1279       C  0.41074598  0.46214000  0.54326360     0.06700
C1280       C  0.43150468  0.44228335  0.52579801    -0.27600
H1281       H  0.44680108  0.55435585  0.54026733     0.11400
H1282       H  0.50003544  0.57587680  0.51003949     0.12500
H1283       H  0.47814582  0.40934547  0.49195652     0.11600
H1284       H  0.53106084  0.43091861  0.46155207     0.10800
H1285       H  0.56302241  0.47683354  0.44072806     0.16200
H1286       H  0.54427068  0.56903527  0.47222595     0.12100
H1287       H  0.40530067  0.50966566  0.55705396     0.15000
H1288       H  0.42497066  0.41726557  0.52611550     0.14800
C1289       C  0.82280434  0.42952224  0.38054325    -0.18100
C1290       C  0.77999859  0.44336480  0.38217415    -0.20300
C1291       C  0.77499204  0.47599921  0.38004886     0.20400
C1292       C  0.81342771  0.49482472  0.37599610    -0.03200
C1293       C  0.85642963  0.48087917  0.37423611    -0.06300
C1294       C  0.86129211  0.44806848  0.37669772     0.20600
C1295       C  0.89461655  0.49987805  0.37027901     0.18800
C1296       C  0.88979239  0.53246127  0.36806812    -0.17800
C1297       C  0.84723635  0.54625226  0.36976659    -0.20000
C1298       C  0.80895447  0.52765324  0.37365412     0.20300
C1299       C  0.76619812  0.54132608  0.37483500    -0.33000
C1300       C  0.72776619  0.52275802  0.37845893     0.01000
C1301       C  0.73226768  0.49016864  0.38150286    -0.24300
C1302       C  0.90465970  0.43462474  0.37596033    -0.28900
C1303       C  0.94290797  0.45374178  0.37282695     0.06700
C1304       C  0.93728021  0.48617743  0.36927590    -0.27600
H1305       H  0.82583649  0.40431509  0.38244848     0.11400
H1306       H  0.75082167  0.42855652  0.38515282     0.12500
H1307       H  0.91896721  0.54728777  0.36516068     0.11600
H1308       H  0.84424885  0.57148772  0.36798539     0.10800
H1309       H  0.76267138  0.56649505  0.37260791     0.16200
H1310       H  0.70245515  0.47580976  0.38405040     0.12100
H1311       H  0.90874226  0.40961785  0.37879645     0.15000
H1312       H  0.96644132  0.50115128  0.36669927     0.14800
C1313       C  0.32825686  0.55120751  0.38784122    -0.18100
C1314       C  0.28554545  0.53721215  0.38799391    -0.20300
C1315       C  0.28003295  0.50596745  0.38026901     0.20400
C1316       C  0.31774517  0.48882921  0.37180209    -0.03200
C1317       C  0.36072351  0.50319634  0.37114390    -0.06300
C1318       C  0.36608506  0.53435856  0.37963402     0.20600
C1319       C  0.39841768  0.48619803  0.36248570     0.18800
C1320       C  0.39273907  0.45508113  0.35439554    -0.17800
C1321       C  0.35027488  0.44068898  0.35541943    -0.20000
C1322       C  0.31263782  0.45724169  0.36430050     0.20300
C1323       C  0.27004256  0.44282197  0.36588279    -0.33000
C1324       C  0.23232990  0.45987977  0.37418632     0.01000
C1325       C  0.23751792  0.49153041  0.38103788    -0.24300
C1326       C  0.40929826  0.54786096  0.38036121    -0.28900
C1327       C  0.44720742  0.53085897  0.37230444     0.06700
C1328       C  0.44129940  0.50030172  0.36276087    -0.27600
H1329       H  0.33175077  0.57519290  0.39431834     0.11400
H1330       H  0.25691236  0.55069381  0.39449619     0.12500
H1331       H  0.42129222  0.44170355  0.34766069     0.11600
H1332       H  0.34692949  0.41651224  0.34938518     0.10800
H1333       H  0.26597514  0.41857398  0.36013467     0.16200
H1334       H  0.20847286  0.50478283  0.38734022     0.12100
H1335       H  0.41356630  0.57145715  0.38760316     0.15000
H1336       H  0.47037915  0.48694372  0.35666630     0.14800
C1337       C  0.66961788  0.51938000  0.21794046    -0.18100
C1338       C  0.66519057  0.53818807  0.23922525    -0.20300
C1339       C  0.63407762  0.53032385  0.25780743     0.20400
C1340       C  0.60725716  0.50305131  0.25479857    -0.03200
C1341       C  0.61193512  0.48393068  0.23338073    -0.06300
C1342       C  0.64313032  0.49229380  0.21488610     0.20600
C1343       C  0.58506002  0.45667925  0.23035316     0.18800
C1344       C  0.55414789  0.44871707  0.24899564    -0.17800
C1345       C  0.54980814  0.46747816  0.27031139    -0.20000
C1346       C  0.57611660  0.49465803  0.27332070     0.20300
C1347       C  0.57288693  0.51296978  0.29494791    -0.33000
C1348       C  0.60060793  0.53947138  0.29862738     0.01000
C1349       C  0.63042367  0.54852951  0.27971309    -0.24300
C1350       C  0.64624345  0.47403715  0.19324915    -0.28900
C1351       C  0.61817260  0.44771042  0.18947424     0.06700
C1352       C  0.58847874  0.43857666  0.20839085    -0.27600
H1353       H  0.69366635  0.52610705  0.20378655     0.11400
H1354       H  0.68620408  0.55885797  0.24117580     0.12500
H1355       H  0.53318412  0.42801841  0.24705912     0.11600
H1356       H  0.52587482  0.46068413  0.28450125     0.10800
H1357       H  0.55027914  0.50566802  0.30967172     0.16200
H1358       H  0.65269078  0.56837534  0.28272980     0.12100
H1359       H  0.66914392  0.48122767  0.17862607     0.15000
H1360       H  0.56623778  0.41871351  0.20537878     0.14800
C1361       C  0.62748688  0.93797779  0.36434200    -0.18100
C1362       C  0.67003013  0.95211244  0.36260454    -0.20300
C1363       C  0.67717210  0.98260336  0.37177133     0.20400
C1364       C  0.64126789  0.99885342  0.38316756    -0.03200
C1365       C  0.59829133  0.98459301  0.38489866    -0.06300
C1366       C  0.59126361  0.95407186  0.37527684     0.20600
C1367       C  0.56223206  0.00107420  0.39591349     0.18800
C1368       C  0.56965081  0.03122613  0.40571558    -0.17800
C1369       C  0.61220498  0.04532617  0.40402563    -0.20000
C1370       C  0.64808448  0.02951869  0.39249106     0.20300
C1371       C  0.69041858  0.04399619  0.38981664    -0.33000
C1372       C  0.72618336  0.02818059  0.37801039     0.01000
C1373       C  0.71937275  0.99727698  0.36940178    -0.24300
C1374       C  0.54803898  0.94041463  0.37640087    -0.28900
C1375       C  0.51161908  0.95715388  0.38661615     0.06700
C1376       C  0.51923440  0.98732546  0.39660659    -0.27600
H1377       H  0.62280480  0.91455353  0.35689766     0.11400
H1378       H  0.69729461  0.93927353  0.35384962     0.12500
H1379       H  0.54236327  0.04407051  0.41445247     0.11600
H1380       H  0.61690823  0.06874562  0.41147825     0.10800
H1381       H  0.69544028  0.06761769  0.39681692     0.16200
H1382       H  0.74672446  0.98478615  0.36039364     0.12100
H1383       H  0.54247464  0.91716345  0.36876003     0.15000
H1384       H  0.49152961  0.00022158  0.40491747     0.14800
C1385       C  0.10410174  0.94126606  0.37122518    -0.18100
C1386       C  0.06208391  0.95613800  0.37090893    -0.20300
C1387       C  0.05912740  0.98889721  0.37293049     0.20400
C1388       C  0.09867222  0.00693690  0.37555304    -0.03200
C1389       C  0.14119455  0.99192141  0.37562790    -0.06300
C1390       C  0.14384369  0.95894520  0.37334989     0.20600
C1391       C  0.18098610  0.00989173  0.37773649     0.18800
C1392       C  0.17783206  0.04258475  0.38051384    -0.17800
C1393       C  0.13559555  0.05744616  0.38072324    -0.20000
C1394       C  0.09572726  0.03990831  0.37800421     0.20300
C1395       C  0.05301497  0.05460900  0.37794306    -0.33000
C1396       C  0.01341570  0.03659900  0.37543733     0.01000
C1397       C  0.01713416  0.00379637  0.37263002    -0.24300
C1398       C  0.18614886  0.94422524  0.37283384    -0.28900
C1399       C  0.22596957  0.96205178  0.37397940     0.06700
C1400       C  0.22314568  0.99486105  0.37671309    -0.27600
H1401       H  0.10552905  0.91596301  0.36954519     0.11400
H1402       H  0.03183890  0.94199176  0.36906757     0.12500
H1403       H  0.20809117  0.05671279  0.38237439     0.11600
H1404       H  0.13413882  0.08269465  0.38282831     0.10800
H1405       H  0.05057507  0.07978605  0.38037889     0.16200
H1406       H  0.98702260  0.98951432  0.37067231     0.12100
H1407       H  0.18808265  0.91895141  0.37088279     0.15000
H1408       H  0.25379154  0.00869915  0.37805398     0.14800
C1409       C  0.42116060  0.03690793  0.24924535    -0.18100
C1410       C  0.42466170  0.01849058  0.27077857    -0.20300
C1411       C  0.39365369  0.99421609  0.27527357     0.20400
C1412       C  0.35846712  0.98866820  0.25807103    -0.03200
C1413       C  0.35484772  0.00734442  0.23633921    -0.06300
C1414       C  0.38656909  0.03145784  0.23175020     0.20600
C1415       C  0.32009661  0.00137273  0.21893555     0.18800
C1416       C  0.28881213  0.97735089  0.22354919    -0.17800
C1417       C  0.29213446  0.95912130  0.24515197    -0.20000
C1418       C  0.32695346  0.96441678  0.26251979     0.20300
C1419       C  0.33021225  0.94634033  0.28444328    -0.33000
C1420       C  0.36461914  0.95217942  0.30206374     0.01000
C1421       C  0.39674524  0.97583786  0.29691236    -0.24300
C1422       C  0.38428397  0.04864941  0.20928641    -0.28900
C1423       C  0.35097259  0.04161821  0.19133582     0.06700
C1424       C  0.31834490  0.01857285  0.19670464    -0.27600
H1425       H  0.44585404  0.05520501  0.24614620     0.11400
H1426       H  0.45178295  0.02319327  0.28391420     0.12500
H1427       H  0.26193526  0.97245680  0.21030370     0.11600
H1428       H  0.26753068  0.94075481  0.24821478     0.10800
H1429       H  0.30497122  0.92860749  0.28821675     0.16200
H1430       H  0.42343224  0.98086130  0.31025760     0.12100
H1431       H  0.41009892  0.06580488  0.20504324     0.15000
H1432       H  0.29290646  0.01281185  0.18278348     0.14800
C1433       C  0.39826598  0.73480345  0.34251684    -0.18100
C1434       C  0.41951593  0.70539001  0.34274859    -0.20300
C1435       C  0.46594058  0.70278686  0.34795009     0.20400
C1436       C  0.49149337  0.73025973  0.35207124    -0.03200
C1437       C  0.46990240  0.75993056  0.35223321    -0.06300
C1438       C  0.42291565  0.76221956  0.34773957     0.20600
C1439       C  0.49500250  0.78710823  0.35807311     0.18800
C1440       C  0.54165751  0.78466304  0.36248276    -0.17800
C1441       C  0.56312987  0.75542515  0.36188774    -0.20000
C1442       C  0.53824956  0.72800858  0.35716049     0.20300
C1443       C  0.55892867  0.69835729  0.35864588    -0.33000
C1444       C  0.53322400  0.67077054  0.35608470     0.01000
C1445       C  0.48686039  0.67323162  0.35021158    -0.24300
C1446       C  0.40112646  0.79157347  0.34986460    -0.28900
C1447       C  0.42564053  0.81836712  0.35720392     0.06700
C1448       C  0.47270022  0.81599239  0.36064578    -0.27600
H1449       H  0.36226091  0.73600430  0.33897802     0.11400
H1450       H  0.39936983  0.68456841  0.33937310     0.12500
H1451       H  0.56145343  0.80534559  0.36692083     0.11600
H1452       H  0.59899243  0.75416889  0.36584386     0.10800
H1453       H  0.59444577  0.69673809  0.36347882     0.16200
H1454       H  0.46677154  0.65210017  0.34820538     0.12100
H1455       H  0.36479401  0.79312461  0.34763398     0.15000
H1456       H  0.49170255  0.83654300  0.36644265     0.14800
C1457       C  0.13992308  0.84516828  0.47654824    -0.18100
C1458       C  0.16782055  0.84641269  0.45548376    -0.20300
C1459       C  0.21480666  0.84996917  0.45808646     0.20400
C1460       C  0.23366851  0.85161984  0.48235604    -0.03200
C1461       C  0.20550287  0.85027780  0.50365222    -0.06300
C1462       C  0.15835660  0.84743047  0.50071759     0.20600
C1463       C  0.22443782  0.85295329  0.52783695     0.18800
C1464       C  0.27129785  0.85668572  0.53050226    -0.17800
C1465       C  0.29905960  0.85803617  0.50950940    -0.20000
C1466       C  0.28055806  0.85566203  0.48539637     0.20300
C1467       C  0.30812482  0.85844690  0.46434000    -0.33000
C1468       C  0.28987985  0.85802056  0.43991097     0.01000
C1469       C  0.24301021  0.85310895  0.43697711    -0.24300
C1470       C  0.13041343  0.84832417  0.52190974    -0.28900
C1471       C  0.14889666  0.85195954  0.54612251     0.06700
C1472       C  0.19613972  0.85333038  0.54886986    -0.27600
H1473       H  0.10375295  0.84299749  0.47390392     0.11400
H1474       H  0.15250207  0.84513490  0.43711770     0.12500
H1475       H  0.28645229  0.85909895  0.54884546     0.11600
H1476       H  0.33504052  0.86143478  0.51214021     0.10800
H1477       H  0.34398480  0.86233964  0.46712203     0.16200
H1478       H  0.22823279  0.85328509  0.41844778     0.12100
H1479       H  0.09405381  0.84761345  0.51947249     0.15000
H1480       H  0.21074702  0.85690814  0.56724055     0.14800
C1481       C  0.49310861  0.04184386  0.47378146    -0.18100
C1482       C  0.45318664  0.03636928  0.46054341    -0.20300
C1483       C  0.42656553  0.01014745  0.46601244     0.20400
C1484       C  0.43978471  0.98943229  0.48520857    -0.03200
C1485       C  0.47998752  0.99489526  0.49847472    -0.06300
C1486       C  0.50665294  0.02129529  0.49276769     0.20600
C1487       C  0.49307366  0.97433018  0.51778822     0.18800
C1488       C  0.46626374  0.94817277  0.52330330    -0.17800
C1489       C  0.42689981  0.94223875  0.50962127    -0.20000
C1490       C  0.41368780  0.96257987  0.49043174     0.20300
C1491       C  0.37775378  0.95488748  0.47460516    -0.33000
C1492       C  0.37047652  0.97262815  0.45298760     0.01000
C1493       C  0.38971810  0.00241792  0.45089608    -0.24300
C1494       C  0.54421589  0.02816737  0.50761554    -0.28900
C1495       C  0.55293825  0.01038136  0.52906496     0.06700
C1496       C  0.53057556  0.98181554  0.53259343    -0.27600
H1497       H  0.51314315  0.06232993  0.46936447     0.11400
H1498       H  0.44368525  0.05221492  0.44566014     0.12500
H1499       H  0.47565639  0.93239652  0.53825058     0.11600
H1500       H  0.40721889  0.92148961  0.51375848     0.10800
H1501       H  0.36173817  0.93210190  0.47628674     0.16200
H1502       H  0.38299773  0.01627719  0.43435066     0.12100
H1503       H  0.56166284  0.05031145  0.50511478     0.15000
H1504       H  0.53733061  0.96827227  0.54929158     0.14800
loop_ 
_geom_bond_atom_site_label_1 
_geom_bond_atom_site_label_2 
_geom_bond_distance 
_geom_bond_site_symmetry_2 
_ccdc_geom_bond_type 
O1          Cr19   2.044       .  S
O1            C9   1.276       .  A
O2          Cr19   1.983       .  S
O2            C3   1.254       .  A
C3            O4   1.255       .  A
C3         C1399   1.478       .  S
O4          Cr20   1.991       .  S
O5          Cr20   1.968       .  S
O5            C6   1.257       .  A
C6            O7   1.267       .  A
C6         C1492   1.447       .  S
O7          Cr21   1.981       .  S
O8          Cr21   1.952       .  S
O8            C9   1.257       .  A
C9         C1468   1.501       .  S
O10         Cr19   2.011       .  S
O10          C18   1.266       .  A
O11         Cr19   2.067       .  S
O11          C12   1.286       .  A
C12          O13   1.261       .  A
C12        C1420   1.496       .  S
O13         Cr20   1.951       .  S
O14         Cr20   2.006       .  S
O14          C15   1.262       .  A
C15          O16   1.261       .  A
C15        C1375   1.484       .  S
O16         Cr21   1.995       .  S
O17         Cr21   1.978       .  S
O17          C18   1.259       .  A
C18        C1447   1.485       .  S
Cr19         O22   1.778       .  S
Cr20         O22   1.777       .  S
Cr21         O22   1.770       .  S
O23         Cr41   1.992       .  S
O23          C31   1.264       .  A
O24         Cr41   1.999       .  S
O24          C25   1.266       .  A
C25          O26   1.259       .  A
C25        C1300   1.468       .  S
O26         Cr42   1.973       .  S
O27         Cr42   1.988       .  S
O27          C28   1.260       .  A
C28          O29   1.253       .  A
C28        C1276   1.467       .  S
O29         Cr43   1.965       .  S
O30         Cr43   2.017       .  S
O30          C31   1.269       .  A
C31        C1255   1.500       .  S
O32         Cr41   2.029       .  S
O32          C40   1.269       .  A
O33         Cr41   2.016       .  S
O33          C34   1.273       .  A
C34          O35   1.262       .  A
C34        C1348   1.479       .  S
O35         Cr42   1.979       .  S
O36         Cr42   1.972       .  S
O36          C37   1.261       .  A
C37          O38   1.270       .  A
C37        C1327   1.482       .  S
O38         Cr43   2.017       .  S
O39         Cr43   1.978       .  S
O39          C40   1.257       .  A
C40        C1444   1.489       .  S
Cr41         O44   1.775       .  S
Cr42         O44   1.774       .  S
Cr43         O44   1.770       .  S
O45         Cr63   2.006       .  S
O45          C53   1.265       .  A
O46         Cr63   1.995       .  S
O46          C47   1.266       .  A
C47          O48   1.265       .  A
C47        C1156   1.481       .  S
O48         Cr64   1.990       .  S
O49         Cr64   2.000       .  S
O49          C50   1.261       .  A
C50          O51   1.255       .  A
C50        C1231   1.477       .  S
O51         Cr65   1.969       .  S
O52         Cr65   2.011       .  S
O52          C53   1.267       .  A
C53        C1204   1.503       .  S
O54         Cr63   2.032       .  S
O54          C62   1.269       .  A
O55         Cr63   2.021       .  S
O55          C56   1.273       .  A
C56          O57   1.263       .  A
C56        C1423   1.484       .  S
O57         Cr64   1.991       .  S
O58         Cr64   1.980       .  S
O58          C59   1.264       .  A
C59          O60   1.266       .  A
C59        C1135   1.471       .  S
O60         Cr65   2.001       .  S
O61         Cr65   1.971       .  S
O61          C62   1.256       .  A
C62        C1180   1.492       .  S
Cr63         O66   1.775       .  S
Cr64         O66   1.778       .  S
Cr65         O66   1.771       .  S
O67         Cr85   1.986       .  S
O67          C75   1.264       .  A
O68         Cr85   2.015       .  S
O68          C69   1.270       .  A
C69          O70   1.264       .  A
C69        C1087   1.490       .  S
O70         Cr86   1.990       .  S
O71         Cr86   1.975       .  S
O71          C72   1.257       .  A
C72          O73   1.253       .  A
C72        C1060   1.466       .  S
O73         Cr87   1.967       .  S
O74         Cr87   2.015       .  S
O74          C75   1.268       .  A
C75        C1036   1.494       .  S
O76         Cr85   2.036       .  S
O76          C84   1.269       .  A
O77         Cr85   2.016       .  S
O77          C78   1.271       .  A
C78          O79   1.261       .  A
C78        C1351   1.478       .  S
O79         Cr86   1.977       .  S
O80         Cr86   1.985       .  S
O80          C81   1.266       .  A
C81          O82   1.270       .  A
C81        C1108   1.486       .  S
O82         Cr87   2.016       .  S
O83         Cr87   1.973       .  S
O83          C84   1.256       .  A
C84        C1183   1.494       .  S
Cr85         O88   1.775       .  S
Cr86         O88   1.776       .  S
Cr87         O88   1.776       .  S
O89        Cr107   1.950       .  S
O89          C97   1.257       .  A
O90        Cr107   1.975       .  S
O90          C91   1.259       .  A
C91          O92   1.260       .  A
C91         C988   1.456       .  S
O92        Cr108   1.986       .  S
O93        Cr108   2.011       .  S
O93          C94   1.263       .  A
C94          O95   1.257       .  A
C94        C1132   1.481       .  S
O95        Cr109   1.970       .  S
O96        Cr109   2.047       .  S
O96          C97   1.278       .  A
C97        C1015   1.495       .  S
O98        Cr107   1.984       .  S
O98         C106   1.257       .  A
O99        Cr107   1.976       .  S
O99         C100   1.262       .  A
C100        O101   1.267       .  A
C100       C1159   1.469   1_655  S
O101       Cr108   2.004       .  S
O102       Cr108   1.954       .  S
O102        C103   1.257       .  A
C103        O104   1.276       .  A
C103        C940   1.479       .  S
O104       Cr109   2.047       .  S
O105       Cr109   2.009       .  S
O105        C106   1.263       .  A
C106        C964   1.481       .  S
Cr107       O110   1.772       .  S
Cr108       O110   1.777       .  S
Cr109       O110   1.778       .  S
O111       Cr129   1.958       .  S
O111        C119   1.260       .  A
O112       Cr129   1.967       .  S
O112        C113   1.256       .  A
C113        O114   1.259       .  A
C113        C895   1.454       .  S
O114       Cr130   1.988       .  S
O115       Cr130   2.004       .  S
O115        C116   1.263       .  A
C116        O117   1.258       .  A
C116       C1111   1.486       .  S
O117       Cr131   1.982       .  S
O118       Cr131   2.044       .  S
O118        C119   1.277       .  A
C119        C868   1.496       .  S
O120       Cr129   1.978       .  S
O120        C128   1.255       .  A
O121       Cr129   1.994       .  S
O121        C122   1.266   1_455  A
C122        O123   1.268   1_655  A
C122       C1084   1.487       .  S
O123       Cr130   2.005       .  S
O124       Cr130   1.956       .  S
O124        C125   1.258       .  A
C125        O126   1.275       .  A
C125        C919   1.485       .  S
O126       Cr131   2.045       .  S
O127       Cr131   2.013       .  S
O127        C128   1.263       .  A
C128        C967   1.480       .  S
Cr129       O132   1.780       .  S
Cr130       O132   1.777       .  S
Cr131       O132   1.790       .  S
O133       Cr151   1.964       .  S
O133        C141   1.259       .  A
O134       Cr151   1.975       .  S
O134        C135   1.262       .  A
C135        O136   1.261       .  A
C135        C820   1.451       .  S
O136       Cr152   1.978       .  S
O137       Cr152   1.997       .  S
O137        C138   1.257       .  A
C138        O139   1.256       .  A
C138       C1372   1.486       .  S
O139       Cr153   1.990       .  S
O140       Cr153   2.025       .  S
O140        C141   1.272       .  A
C141        C844   1.492       .  S
O142       Cr151   1.980       .  S
O142        C150   1.258       .  A
O143       Cr151   2.005       .  S
O143        C144   1.266       .  A
C144        O145   1.261       .  A
C144       C1396   1.486   1_655  S
O145       Cr152   1.985       .  S
O146       Cr152   1.953       .  S
O146        C147   1.259       .  A
C147        O148   1.279       .  A
C147        C943   1.486       .  S
O148       Cr153   2.053       .  S
O149       Cr153   2.010       .  S
O149        C150   1.265       .  A
C150        C799   1.478       .  S
Cr151       O154   1.778       .  S
Cr152       O154   1.774       .  S
Cr153       O154   1.781       .  S
O155       Cr173   1.945       .  S
O155        C163   1.257       .  A
O156       Cr173   1.976       .  S
O156        C157   1.260       .  A
C157        O158   1.260       .  A
C157        C751   1.454       .  S
O158       Cr174   1.988       .  S
O159       Cr174   1.992       .  S
O159        C160   1.259       .  A
C160        O161   1.259       .  A
C160       C1324   1.478       .  S
O161       Cr175   1.986       .  S
O162       Cr175   2.048       .  S
O162        C163   1.279       .  A
C163        C775   1.491       .  S
O164       Cr173   1.975       .  S
O164        C172   1.256       .  A
O165       Cr173   1.985   1_655  S
O165        C166   1.262       .  A
C166        O167   1.264   1_655  A
C166       C1303   1.476       .  S
O167       Cr174   1.991       .  S
O168       Cr174   1.953       .  S
O168        C169   1.258       .  A
C169        O170   1.277       .  A
C169        C916   1.480       .  S
O170       Cr175   2.049       .  S
O171       Cr175   2.015       .  S
O171        C172   1.264       .  A
C172        C796   1.486       .  S
Cr173       O176   1.774       .  S
Cr174       O176   1.773       .  S
Cr175       O176   1.783       .  S
O177       Cr195   1.963       .  S
O177        C185   1.258       .  A
O178       Cr195   1.969       .  S
O178        C179   1.262       .  A
C179        O180   1.260       .  A
C179       C1495   1.450       .  S
O180       Cr196   1.981       .  S
O181       Cr196   1.990       .  S
O181        C182   1.257       .  A
C182        O183   1.257       .  A
C182        C652   1.479       .  S
O183       Cr197   1.983       .  S
O184       Cr197   2.037       .  S
O184        C185   1.275       .  A
C185        C847   1.497       .  S
O186       Cr195   1.981       .  S
O186        C194   1.258       .  A
O187       Cr195   1.999       .  S
O187        C188   1.264       .  A
C188        O189   1.260       .  A
C188        C676   1.479       .  S
O189       Cr196   1.988       .  S
O190       Cr196   1.967       .  S
O190        C191   1.261       .  A
C191        O192   1.280       .  A
C191        C700   1.490       .  S
O192       Cr197   2.053       .  S
O193       Cr197   2.010       .  S
O193        C194   1.265       .  A
C194        C727   1.481       .  S
Cr195       O198   1.778       .  S
Cr196       O198   1.779       .  S
Cr197       O198   1.780       .  S
O199       Cr217   2.011       .  S
O199        C207   1.267       .  A
O200       Cr217   1.966       .  S
O200        C201   1.254       .  A
C201        O202   1.258       .  A
C201       C1279   1.467       .  S
O202       Cr218   1.986       .  S
O203       Cr218   1.984       .  S
O203        C204   1.264       .  A
C204        O205   1.271       .  A
C204        C604   1.485       .  S
O205       Cr219   2.013       .  S
O206       Cr219   1.985       .  S
O206        C207   1.262       .  A
C207        C772   1.492       .  S
O208       Cr217   1.961       .  S
O208        C216   1.254       .  A
O209       Cr217   2.009       .  S
O209        C210   1.268       .  A
C210        O211   1.266       .  A
C210        C583   1.478       .  S
O211       Cr218   1.982       .  S
O212       Cr218   1.986       .  S
O212        C213   1.261       .  A
C213        O214   1.270       .  A
C213        C628   1.475       .  S
O214       Cr219   2.013       .  S
O215       Cr219   2.043       .  S
O215        C216   1.271       .  A
C216        C724   1.494       .  S
Cr217       O220   1.771       .  S
Cr218       O220   1.775       .  S
Cr219       O220   1.775       .  S
O221       Cr239   2.004       .  S
O221        C229   1.265       .  A
O222       Cr239   1.973       .  S
O222        C223   1.256       .  A
C223        O224   1.263       .  A
C223       C1228   1.479       .  S
O224       Cr240   2.002       .  S
O225       Cr240   1.990       .  S
O225        C226   1.265       .  A
C226        O227   1.267       .  A
C226        C511   1.491       .  S
O227       Cr241   2.013       .  S
O228       Cr241   1.999       .  S
O228        C229   1.264       .  A
C229       C1012   1.495       .  S
O230       Cr239   1.974       .  S
O230        C238   1.259       .  A
O231       Cr239   2.005       .  S
O231        C232   1.267       .  A
C232        O233   1.266       .  A
C232        C532   1.487       .  S
O233       Cr240   1.991       .  S
O234       Cr240   2.001       .  S
O234        C235   1.265       .  A
C235        O236   1.272       .  A
C235        C703   1.483       .  S
O236       Cr241   2.015       .  S
O237       Cr241   2.044       .  S
O237        C238   1.272       .  A
C238        C556   1.497       .  S
Cr239       O242   1.773       .  S
Cr240       O242   1.771       .  S
Cr241       O242   1.778       .  S
O243       Cr261   1.959       .  S
O243        C251   1.256       .  A
O244       Cr261   1.991       .  S
O244        C245   1.269       .  A
C245        O246   1.258       .  A
C245       C1063   1.447       .  S
O246       Cr262   1.964       .  S
O247       Cr262   1.995       .  S
O247        C248   1.256       .  A
C248        O249   1.257       .  A
C248        C484   1.483       .  S
O249       Cr263   1.993       .  S
O250       Cr263   2.036       .  S
O250        C251   1.275       .  A
C251        C871   1.493       .  S
O252       Cr261   1.988       .  S
O252        C260   1.261       .  A
O253       Cr261   1.990       .  S
O253        C254   1.259       .  A
C254        O255   1.259       .  A
C254        C460   1.478       .  S
O255       Cr262   1.991       .  S
O256       Cr262   1.947       .  S
O256        C257   1.258       .  A
C257        O258   1.283       .  A
C257        C631   1.490       .  S
O258       Cr263   2.064       .  S
O259       Cr263   2.009       .  S
O259        C260   1.267       .  A
C260        C559   1.486       .  S
Cr261       O264   1.771       .  S
Cr262       O264   1.775       .  S
Cr263       O264   1.775       .  S
O265       Cr283   2.034       .  S
O265        C273   1.276       .  A
O266       Cr283   1.996       .  S
O266        C267   1.259       .  A
C267        O268   1.256       .  A
C267        C679   1.483       .  S
O268       Cr284   1.987       .  S
O269       Cr284   1.978       .  S
O269        C270   1.260       .  A
C270        O271   1.261       .  A
C270        C823   1.449       .  S
O271       Cr285   1.970       .  S
O272       Cr285   1.964       .  S
O272        C273   1.258       .  A
C273       C1471   1.494       .  S
O274       Cr283   2.022       .  S
O274        C282   1.268       .  A
O275       Cr283   2.063       .  S
O275        C276   1.281       .  A
C276        O277   1.257       .  A
C276        C412   1.496       .  S
O277       Cr284   1.949       .  S
O278       Cr284   1.978       .  S
O278        C279   1.260   1_455  A
C279        O280   1.265       .  A
C279        C655   1.482       .  S
O280       Cr285   2.003   1_655  S
O281       Cr285   1.977       .  S
O281        C282   1.258       .  A
C282        C436   1.489       .  S
Cr283       O286   1.779       .  S
Cr284       O286   1.771       .  S
Cr285       O286   1.775       .  S
O287       Cr305   2.051       .  S
O287        C295   1.279       .  A
O288       Cr305   1.976       .  S
O288        C289   1.257       .  A
C289        O290   1.262       .  A
C289        C580   1.487       .  S
O290       Cr306   2.008       .  S
O291       Cr306   1.994       .  S
O291        C292   1.262       .  A
C292        O293   1.256       .  A
C292        C748   1.457       .  S
O293       Cr307   1.966       .  S
O294       Cr307   1.958       .  S
O294        C295   1.261       .  A
C295       C1252   1.502       .  S
O296       Cr305   2.012       .  S
O296        C304   1.261       .  A
O297       Cr305   2.043       .  S
O297        C298   1.276       .  A
C298        O299   1.259       .  A
C298        C388   1.482       .  S
O299       Cr306   1.960       .  S
O300       Cr306   1.999       .  S
O300        C301   1.267       .  A
C301        O302   1.266       .  A
C301        C607   1.480   1_655  S
O302       Cr307   1.992       .  S
O303       Cr307   1.978       .  S
O303        C304   1.254       .  A
C304        C439   1.480       .  S
Cr305       O308   1.786       .  S
Cr306       O308   1.782       .  S
Cr307       O308   1.781       .  S
O309       Cr327   2.001       .  S
O309        C317   1.264       .  A
O310       Cr327   2.014       .  S
O310        C311   1.269       .  A
C311        O312   1.264       .  A
C311        C535   1.485       .  S
O312       Cr328   1.990       .  S
O313       Cr328   2.000       .  S
O313        C314   1.261       .  A
C314        O315   1.251       .  A
C314        C991   1.471       .  S
O315       Cr329   1.959       .  S
O316       Cr329   2.009       .  S
O316        C317   1.267       .  A
C317       C1207   1.499       .  S
O318       Cr327   2.050       .  S
O318        C326   1.273       .  A
O319       Cr327   2.021       .  S
O319        C320   1.275       .  A
C320        O321   1.265       .  A
C320        C415   1.485       .  S
O321       Cr328   1.993       .  S
O322       Cr328   1.989       .  S
O322        C323   1.266       .  A
C323        O324   1.270       .  A
C323        C508   1.489   1_455  S
O324       Cr329   2.011       .  S
O325       Cr329   1.969       .  S
O325        C326   1.255       .  A
C326        C364   1.497       .  S
Cr327       O330   1.773       .  S
Cr328       O330   1.772       .  S
Cr329       O330   1.766       .  S
O331       Cr349   2.033       .  S
O331        C339   1.273       .  A
O332       Cr349   1.984       .  S
O332        C333   1.258       .  A
C333        O334   1.258       .  A
C333        C463   1.482       .  S
O334       Cr350   1.994       .  S
O335       Cr350   1.987       .  S
O335        C336   1.261       .  A
C336        O337   1.260       .  A
C336        C892   1.454       .  S
O337       Cr351   1.972       .  S
O338       Cr351   1.963       .  S
O338        C339   1.259       .  A
C339       C1039   1.493       .  S
O340       Cr349   2.018       .  S
O340        C348   1.268       .  A
O341       Cr349   2.050       .  S
O341        C342   1.277       .  A
C342        O343   1.260       .  A
C342        C391   1.488       .  S
O343       Cr350   1.961       .  S
O344       Cr350   1.990       .  S
O344        C345   1.261       .  A
C345        O346   1.264       .  A
C345        C487   1.478   1_655  S
O346       Cr351   1.997       .  S
O347       Cr351   1.980       .  S
O347        C348   1.258       .  A
C348        C367   1.488       .  S
Cr349       O352   1.785       .  S
Cr350       O352   1.780       .  S
Cr351       O352   1.775       .  S
C353        C354   1.403       .  A
C353        C358   1.405       .  A
C353        H369   1.083       .  S
C354        C355   1.406       .  A
C354        H370   1.084       .  S
C355        C365   1.409       .  A
C355        C356   1.410       .  A
C356        C362   1.414   1_655  A
C356        C357   1.420       .  A
C357        C359   1.410       .  A
C357        C358   1.415       .  A
C358        C366   1.414       .  A
C359        C368   1.407       .  A
C359        C360   1.405   1_655  A
C360        C361   1.402       .  A
C360        H371   1.084       .  S
C361        C362   1.405       .  A
C361        H372   1.083       .  S
C362        C363   1.413       .  A
C363        C364   1.409       .  A
C363        H373   1.084       .  S
C364        C365   1.413   1_455  A
C365        H374   1.085       .  S
C366        C367   1.408       .  A
C366        H375   1.084       .  S
C367        C368   1.410       .  A
C368        H376   1.085       .  S
C377        C378   1.404       .  A
C377        C382   1.406       .  A
C377        H393   1.083       .  S
C378        C379   1.405       .  A
C378        H394   1.083       .  S
C379        C389   1.412       .  A
C379        C380   1.413       .  A
C380        C386   1.411       .  A
C380        C381   1.417       .  A
C381        C383   1.411       .  A
C381        C382   1.413       .  A
C382        C390   1.413       .  A
C383        C392   1.403       .  A
C383        C384   1.403       .  A
C384        C385   1.399       .  A
C384        H395   1.084       .  S
C385        C386   1.403       .  A
C385        H396   1.084       .  S
C386        C387   1.403       .  A
C387        C388   1.407       .  A
C387        H397   1.085       .  S
C388        C389   1.408       .  A
C389        H398   1.084       .  S
C390        C391   1.410       .  A
C390        H399   1.084       .  S
C391        C392   1.408       .  A
C392        H400   1.085       .  S
C401        C402   1.402       .  A
C401        C406   1.406       .  A
C401        H417   1.084       .  S
C402        C403   1.404       .  A
C402        H418   1.083       .  S
C403        C413   1.414       .  A
C403        C404   1.416       .  A
C404        C410   1.406       .  A
C404        C405   1.417   1_565  A
C405        C407   1.417       .  A
C405        C406   1.407   1_545  A
C406        C414   1.404   1_565  A
C407        C416   1.412       .  A
C407        C408   1.403       .  A
C408        C409   1.400       .  A
C408        H419   1.083       .  S
C409        C410   1.405   1_545  A
C409        H420   1.084       .  S
C410        C411   1.402       .  A
C411        C412   1.415       .  A
C411        H421   1.084       .  S
C412        C413   1.409       .  A
C413        H422   1.084       .  S
C414        C415   1.412       .  A
C414        H423   1.085       .  S
C415        C416   1.404       .  A
C416        H424   1.084       .  S
C425        C426   1.401       .  A
C425        C430   1.404       .  A
C425        H441   1.083       .  S
C426        C427   1.405       .  A
C426        H442   1.084       .  S
C427        C437   1.405       .  A
C427        C428   1.409       .  A
C428        C434   1.415   1_655  A
C428        C429   1.419       .  A
C429        C431   1.411       .  A
C429        C430   1.414       .  A
C430        C438   1.409       .  A
C431        C440   1.409       .  A
C431        C432   1.405   1_655  A
C432        C433   1.403       .  A
C432        H443   1.084       .  S
C433        C434   1.405       .  A
C433        H444   1.083       .  S
C434        C435   1.415       .  A
C435        C436   1.408       .  A
C435        H445   1.083       .  S
C436        C437   1.410   1_455  A
C437        H446   1.085       .  S
C438        C439   1.405       .  A
C438        H447   1.084       .  S
C439        C440   1.408       .  A
C440        H448   1.085       .  S
C449        C450   1.397       .  A
C449        C454   1.402       .  A
C449        H465   1.084       .  S
C450        C451   1.403       .  A
C450        H466   1.083       .  S
C451        C461   1.397       .  A
C451        C452   1.409       .  A
C452        C458   1.414       .  A
C452        C453   1.411       .  A
C453        C455   1.410       .  A
C453        C454   1.413       .  A
C454        C462   1.402       .  A
C455        C464   1.403       .  A
C455        C456   1.405       .  A
C456        C457   1.400       .  A
C456        H467   1.083       .  S
C457        C458   1.403       .  A
C457        H468   1.084       .  S
C458        C459   1.406       .  A
C459        C460   1.406       .  A
C459        H469   1.084       .  S
C460        C461   1.408       .  A
C461        H470   1.084       .  S
C462        C463   1.406       .  A
C462        H471   1.084       .  S
C463        C464   1.410       .  A
C464        H472   1.084       .  S
C473        C474   1.400       .  A
C473        C478   1.403       .  A
C473        H489   1.084       .  S
C474        C475   1.405       .  A
C474        H490   1.084       .  S
C475        C485   1.403       .  A
C475        C476   1.409       .  A
C476        C482   1.414       .  A
C476        C477   1.412       .  A
C477        C479   1.408       .  A
C477        C478   1.415       .  A
C478        C486   1.409       .  A
C479        C488   1.398       .  A
C479        C480   1.404       .  A
C480        C481   1.398       .  A
C480        H491   1.083       .  S
C481        C482   1.403       .  A
C481        H492   1.084       .  S
C482        C483   1.404       .  A
C483        C484   1.406       .  A
C483        H493   1.084       .  S
C484        C485   1.410       .  A
C485        H494   1.084       .  S
C486        C487   1.404       .  A
C486        H495   1.084       .  S
C487        C488   1.410       .  A
C488        H496   1.085   1_455  S
C497        C498   1.402       .  A
C497        C502   1.405       .  A
C497        H513   1.084       .  S
C498        C499   1.405       .  A
C498        H514   1.084       .  S
C499        C509   1.410   1_565  A
C499        C500   1.413   1_565  A
C500        C506   1.410       .  A
C500        C501   1.415   1_545  A
C501        C503   1.412   1_565  A
C501        C502   1.410       .  A
C502        C510   1.407       .  A
C503        C512   1.405   1_545  A
C503        C504   1.403       .  A
C504        C505   1.398       .  A
C504        H515   1.083       .  S
C505        C506   1.403       .  A
C505        H516   1.084       .  S
C506        C507   1.402       .  A
C507        C508   1.409       .  A
C507        H517   1.084       .  S
C508        C509   1.410       .  A
C509        H518   1.084   1_545  S
C510        C511   1.412       .  A
C510        H519   1.084       .  S
C511        C512   1.407       .  A
C512        H520   1.084       .  S
C521        C522   1.399       .  A
C521        C526   1.404       .  A
C521        H537   1.084       .  S
C522        C523   1.403   1_545  A
C522        H538   1.084       .  S
C523        C533   1.406       .  A
C523        C524   1.413       .  A
C524        C530   1.409       .  A
C524        C525   1.414       .  A
C525        C527   1.413       .  A
C525        C526   1.410   1_565  A
C526        C534   1.402       .  A
C527        C536   1.408   1_565  A
C527        C528   1.404       .  A
C528        C529   1.401       .  A
C528        H539   1.084       .  S
C529        C530   1.405       .  A
C529        H540   1.084       .  S
C530        C531   1.404       .  A
C531        C532   1.412       .  A
C531        H541   1.084       .  S
C532        C533   1.407       .  A
C533        H542   1.084       .  S
C534        C535   1.409       .  A
C534        H543   1.084       .  S
C535        C536   1.408       .  A
C536        H544   1.084   1_545  S
C545        C546   1.404       .  A
C545        C550   1.406       .  A
C545        H561   1.084       .  S
C546        C547   1.406       .  A
C546        H562   1.083       .  S
C547        C557   1.414       .  A
C547        C548   1.413       .  A
C548        C554   1.410       .  A
C548        C549   1.419       .  A
C549        C551   1.414       .  A
C549        C550   1.411       .  A
C550        C558   1.410       .  A
C551        C560   1.410       .  A
C551        C552   1.404       .  A
C552        C553   1.401       .  A
C552        H563   1.083       .  S
C553        C554   1.405       .  A
C553        H564   1.084       .  S
C554        C555   1.407       .  A
C555        C556   1.411       .  A
C555        H565   1.085       .  S
C556        C557   1.411       .  A
C557        H566   1.083       .  S
C558        C559   1.410       .  A
C558        H567   1.085       .  S
C559        C560   1.405       .  A
C560        H568   1.084       .  S
C569        C570   1.402       .  A
C569        C574   1.405       .  A
C569        H585   1.084       .  S
C570        C571   1.405       .  A
C570        H586   1.083       .  S
C571        C581   1.410       .  A
C571        C572   1.412       .  A
C572        C578   1.410       .  A
C572        C573   1.414       .  A
C573        C575   1.412       .  A
C573        C574   1.411       .  A
C574        C582   1.407       .  A
C575        C584   1.402       .  A
C575        C576   1.403       .  A
C576        C577   1.398       .  A
C576        H587   1.083       .  S
C577        C578   1.403       .  A
C577        H588   1.084       .  S
C578        C579   1.402       .  A
C579        C580   1.407       .  A
C579        H589   1.085       .  S
C580        C581   1.410       .  A
C581        H590   1.084       .  S
C582        C583   1.408       .  A
C582        H591   1.085       .  S
C583        C584   1.405       .  A
C584        H592   1.084       .  S
C593        C594   1.403       .  A
C593        C598   1.405       .  A
C593        H609   1.084       .  S
C594        C595   1.406       .  A
C594        H610   1.083       .  S
C595        C605   1.410       .  A
C595        C596   1.411       .  A
C596        C602   1.411       .  A
C596        C597   1.413       .  A
C597        C599   1.410       .  A
C597        C598   1.413       .  A
C598        C606   1.411       .  A
C599        C608   1.397       .  A
C599        C600   1.402       .  A
C600        C601   1.395       .  A
C600        H611   1.083       .  S
C601        C602   1.402       .  A
C601        H612   1.084       .  S
C602        C603   1.398       .  A
C603        C604   1.406       .  A
C603        H613   1.085       .  S
C604        C605   1.411       .  A
C605        H614   1.084       .  S
C606        C607   1.408       .  A
C606        H615   1.084       .  S
C607        C608   1.406       .  A
C608        H616   1.084   1_455  S
C617        C618   1.401       .  A
C617        C622   1.404       .  A
C617        H633   1.084       .  S
C618        C619   1.405       .  A
C618        H634   1.083       .  S
C619        C629   1.403       .  A
C619        C620   1.409       .  A
C620        C626   1.416       .  A
C620        C621   1.416       .  A
C621        C623   1.407       .  A
C621        C622   1.415       .  A
C622        C630   1.411       .  A
C623        C632   1.402       .  A
C623        C624   1.405       .  A
C624        C625   1.400       .  A
C624        H635   1.084       .  S
C625        C626   1.403       .  A
C625        H636   1.083       .  S
C626        C627   1.409       .  A
C627        C628   1.403       .  A
C627        H637   1.084       .  S
C628        C629   1.409       .  A
C629        H638   1.085       .  S
C630        C631   1.407       .  A
C630        H639   1.084       .  S
C631        C632   1.413       .  A
C632        H640   1.084       .  S
C641        C642   1.401       .  A
C641        C646   1.403       .  A
C641        H657   1.084       .  S
C642        C643   1.405       .  A
C642        H658   1.084       .  S
C643        C653   1.402       .  A
C643        C644   1.409       .  A
C644        C650   1.414   1_565  A
C644        C645   1.411       .  A
C645        C647   1.407       .  A
C645        C646   1.415       .  A
C646        C654   1.409       .  A
C647        C656   1.394       .  A
C647        C648   1.404   1_565  A
C648        C649   1.396       .  A
C648        H659   1.084       .  S
C649        C650   1.402       .  A
C649        H660   1.084       .  S
C650        C651   1.401       .  A
C651        C652   1.405       .  A
C651        H661   1.084       .  S
C652        C653   1.410   1_545  A
C653        H662   1.084       .  S
C654        C655   1.405       .  A
C654        H663   1.084       .  S
C655        C656   1.411       .  A
C656        H664   1.084       .  S
C665        C666   1.398       .  A
C665        C670   1.403       .  A
C665        H681   1.083       .  S
C666        C667   1.404       .  A
C666        H682   1.084       .  S
C667        C677   1.397       .  A
C667        C668   1.408   1_565  A
C668        C674   1.416       .  A
C668        C669   1.412   1_545  A
C669        C671   1.408   1_565  A
C669        C670   1.414       .  A
C670        C678   1.405       .  A
C671        C680   1.401   1_545  A
C671        C672   1.405       .  A
C672        C673   1.400       .  A
C672        H683   1.084       .  S
C673        C674   1.403       .  A
C673        H684   1.083       .  S
C674        C675   1.408       .  A
C675        C676   1.404       .  A
C675        H685   1.084       .  S
C676        C677   1.410   1_545  A
C677        H686   1.085       .  S
C678        C679   1.406       .  A
C678        H687   1.084       .  S
C679        C680   1.410       .  A
C680        H688   1.085       .  S
C689        C690   1.402       .  A
C689        C694   1.405       .  A
C689        H705   1.084       .  S
C690        C691   1.405       .  A
C690        H706   1.083       .  S
C691        C701   1.409   1_565  A
C691        C692   1.411       .  A
C692        C698   1.413   1_565  A
C692        C693   1.419       .  A
C693        C695   1.411       .  A
C693        C694   1.413       .  A
C694        C702   1.411       .  A
C695        C704   1.410       .  A
C695        C696   1.405       .  A
C696        C697   1.403       .  A
C696        H707   1.083       .  S
C697        C698   1.405   1_565  A
C697        H708   1.084   1_565  S
C698        C699   1.411       .  A
C699        C700   1.409       .  A
C699        H709   1.084       .  S
C700        C701   1.410       .  A
C701        H710   1.084       .  S
C702        C703   1.407       .  A
C702        H711   1.084       .  S
C703        C704   1.409       .  A
C704        H712   1.084       .  S
C713        C714   1.400       .  A
C713        C718   1.403       .  A
C713        H729   1.083       .  S
C714        C715   1.404       .  A
C714        H730   1.084       .  S
C715        C725   1.403       .  A
C715        C716   1.409       .  A
C716        C722   1.414       .  A
C716        C717   1.418       .  A
C717        C719   1.411       .  A
C717        C718   1.414       .  A
C718        C726   1.408       .  A
C719        C728   1.409       .  A
C719        C720   1.406       .  A
C720        C721   1.403       .  A
C720        H731   1.084       .  S
C721        C722   1.405       .  A
C721        H732   1.083       .  S
C722        C723   1.414       .  A
C723        C724   1.410       .  A
C723        H733   1.083       .  S
C724        C725   1.411       .  A
C725        H734   1.085       .  S
C726        C727   1.405       .  A
C726        H735   1.084       .  S
C727        C728   1.409       .  A
C728        H736   1.085       .  S
C737        C738   1.398       .  A
C737        C742   1.403   1_655  A
C737        H753   1.084       .  S
C738        C739   1.403       .  A
C738        H754   1.084       .  S
C739        C749   1.398       .  A
C739        C740   1.410       .  A
C740        C746   1.413       .  A
C740        C741   1.408   1_655  A
C741        C743   1.410       .  A
C741        C742   1.413       .  A
C742        C750   1.401       .  A
C743        C752   1.397       .  A
C743        C744   1.403       .  A
C744        C745   1.397   1_455  A
C744        H755   1.084       .  S
C745        C746   1.403       .  A
C745        H756   1.084       .  S
C746        C747   1.402       .  A
C747        C748   1.401       .  A
C747        H757   1.085       .  S
C748        C749   1.405       .  A
C749        H758   1.085       .  S
C750        C751   1.401       .  A
C750        H759   1.085       .  S
C751        C752   1.403       .  A
C752        H760   1.085       .  S
C761        C762   1.402       .  A
C761        C766   1.404       .  A
C761        H777   1.083       .  S
C762        C763   1.405       .  A
C762        H778   1.083       .  S
C763        C773   1.408       .  A
C763        C764   1.410       .  A
C764        C770   1.413       .  A
C764        C765   1.416       .  A
C765        C767   1.408       .  A
C765        C766   1.415       .  A
C766        C774   1.413       .  A
C767        C776   1.401       .  A
C767        C768   1.405       .  A
C768        C769   1.399       .  A
C768        H779   1.084       .  S
C769        C770   1.404       .  A
C769        H780   1.084       .  S
C770        C771   1.406       .  A
C771        C772   1.410       .  A
C771        H781   1.084       .  S
C772        C773   1.411       .  A
C773        H782   1.084       .  S
C774        C775   1.407       .  A
C774        H783   1.084       .  S
C775        C776   1.413       .  A
C776        H784   1.084       .  S
C785        C786   1.399       .  A
C785        C790   1.404       .  A
C785        H801   1.083       .  S
C786        C787   1.404       .  A
C786        H802   1.084       .  S
C787        C797   1.403       .  A
C787        C788   1.410       .  A
C788        C794   1.415   1_655  A
C788        C789   1.418       .  A
C789        C791   1.411       .  A
C789        C790   1.413       .  A
C790        C798   1.407       .  A
C791        C800   1.410       .  A
C791        C792   1.405   1_655  A
C792        C793   1.404       .  A
C792        H803   1.084       .  S
C793        C794   1.405       .  A
C793        H804   1.083       .  S
C794        C795   1.414       .  A
C795        C796   1.408       .  A
C795        H805   1.083       .  S
C796        C797   1.409   1_455  A
C797        H806   1.086       .  S
C798        C799   1.405       .  A
C798        H807   1.084       .  S
C799        C800   1.408       .  A
C800        H808   1.085       .  S
C809        C810   1.397       .  A
C809        C814   1.402   1_655  A
C809        H825   1.084       .  S
C810        C811   1.403       .  A
C810        H826   1.084       .  S
C811        C821   1.396       .  A
C811        C812   1.410   1_545  A
C812        C818   1.413       .  A
C812        C813   1.404       .  A
C813        C815   1.410   1_655  A
C813        C814   1.413   1_665  A
C814        C822   1.399   1_545  A
C815        C824   1.393       .  A
C815        C816   1.402   1_455  A
C816        C817   1.395       .  A
C816        H827   1.084   1_655  S
C817        C818   1.401       .  A
C817        H828   1.084       .  S
C818        C819   1.397       .  A
C819        C820   1.399   1_565  A
C819        H829   1.085       .  S
C820        C821   1.403       .  A
C821        H830   1.085       .  S
C822        C823   1.400       .  A
C822        H831   1.085   1_565  S
C823        C824   1.402       .  A
C824        H832   1.086       .  S
C833        C834   1.402       .  A
C833        C838   1.406       .  A
C833        H849   1.083       .  S
C834        C835   1.404       .  A
C834        H850   1.084       .  S
C835        C845   1.411       .  A
C835        C836   1.414       .  A
C836        C842   1.409       .  A
C836        C837   1.419       .  A
C837        C839   1.414       .  A
C837        C838   1.409       .  A
C838        C846   1.407       .  A
C839        C848   1.413       .  A
C839        C840   1.404       .  A
C840        C841   1.402       .  A
C840        H851   1.083       .  S
C841        C842   1.405       .  A
C841        H852   1.083       .  S
C842        C843   1.406       .  A
C843        C844   1.412       .  A
C843        H853   1.084       .  S
C844        C845   1.409       .  A
C845        H854   1.084       .  S
C846        C847   1.414       .  A
C846        H855   1.084       .  S
C847        C848   1.409       .  A
C848        H856   1.084       .  S
C857        C858   1.404       .  A
C857        C862   1.407   1_554  A
C857        H873   1.083       .  S
C858        C859   1.405       .  A
C858        H874   1.083       .  S
C859        C869   1.416       .  A
C859        C860   1.415       .  A
C860        C866   1.408       .  A
C860        C861   1.419   1_554  A
C861        C863   1.415       .  A
C861        C862   1.409       .  A
C862        C870   1.409       .  A
C863        C872   1.410       .  A
C863        C864   1.403       .  A
C864        C865   1.400       .  A
C864        H875   1.083       .  S
C865        C866   1.404   1_556  A
C865        H876   1.084       .  S
C866        C867   1.403       .  A
C867        C868   1.412       .  A
C867        H877   1.084       .  S
C868        C869   1.411       .  A
C869        H878   1.084       .  S
C870        C871   1.415       .  A
C870        H879   1.084       .  S
C871        C872   1.406       .  A
C872        H880   1.084       .  S
C881        C882   1.397   1_455  A
C881        C886   1.403   1_556  A
C881        H897   1.084       .  S
C882        C883   1.403       .  A
C882        H898   1.084       .  S
C883        C893   1.401       .  A
C883        C884   1.413       .  A
C884        C890   1.411       .  A
C884        C885   1.407   1_556  A
C885        C887   1.413   1_655  A
C885        C886   1.411   1_655  A
C886        C894   1.398       .  A
C887        C896   1.400       .  A
C887        C888   1.403   1_455  A
C888        C889   1.397       .  A
C888        H899   1.084       .  S
C889        C890   1.403   1_554  A
C889        H900   1.084       .  S
C890        C891   1.397       .  A
C891        C892   1.403       .  A
C891        H901   1.085       .  S
C892        C893   1.402       .  A
C893        H902   1.085       .  S
C894        C895   1.404       .  A
C894        H903   1.086       .  S
C895        C896   1.401       .  A
C896        H904   1.085       .  S
C905        C906   1.397       .  A
C905        C910   1.403       .  A
C905        H921   1.084   1_455  S
C906        C907   1.403       .  A
C906        H922   1.084   1_455  S
C907        C917   1.402       .  A
C907        C908   1.412       .  A
C908        C914   1.412       .  A
C908        C909   1.416       .  A
C909        C911   1.413       .  A
C909        C910   1.410       .  A
C910        C918   1.401       .  A
C911        C920   1.414       .  A
C911        C912   1.406       .  A
C912        C913   1.405       .  A
C912        H923   1.083       .  S
C913        C914   1.406       .  A
C913        H924   1.083       .  S
C914        C915   1.412       .  A
C915        C916   1.409       .  A
C915        H925   1.084       .  S
C916        C917   1.406       .  A
C917        H926   1.085       .  S
C918        C919   1.407       .  A
C918        H927   1.085       .  S
C919        C920   1.410       .  A
C920        H928   1.084       .  S
C929        C930   1.403   1_545  A
C929        C934   1.405       .  A
C929        H945   1.083       .  S
C930        C931   1.405       .  A
C930        H946   1.083       .  S
C931        C941   1.411       .  A
C931        C932   1.412       .  A
C932        C938   1.412       .  A
C932        C933   1.416       .  A
C933        C935   1.410   1_565  A
C933        C934   1.413   1_565  A
C934        C942   1.412       .  A
C935        C944   1.401       .  A
C935        C936   1.404   1_545  A
C936        C937   1.398       .  A
C936        H947   1.084       .  S
C937        C938   1.403       .  A
C937        H948   1.084       .  S
C938        C939   1.402       .  A
C939        C940   1.406       .  A
C939        H949   1.085       .  S
C940        C941   1.408       .  A
C941        H950   1.084       .  S
C942        C943   1.408       .  A
C942        H951   1.084       .  S
C943        C944   1.409       .  A
C944        H952   1.085       .  S
C953        C954   1.400       .  A
C953        C958   1.404       .  A
C953        H969   1.083       .  S
C954        C955   1.404   1_455  A
C954        H970   1.084       .  S
C955        C965   1.404       .  A
C955        C956   1.410       .  A
C956        C962   1.415       .  A
C956        C957   1.418       .  A
C957        C959   1.410       .  A
C957        C958   1.415   1_655  A
C958        C966   1.410       .  A
C959        C968   1.407       .  A
C959        C960   1.405       .  A
C960        C961   1.403       .  A
C960        H971   1.084       .  S
C961        C962   1.405       .  A
C961        H972   1.083       .  S
C962        C963   1.413       .  A
C963        C964   1.407       .  A
C963        H973   1.084       .  S
C964        C965   1.407       .  A
C965        H974   1.085       .  S
C966        C967   1.405       .  A
C966        H975   1.084       .  S
C967        C968   1.409   1_455  A
C968        H976   1.085       .  S
C977        C978   1.395       .  A
C977        C982   1.402   1_655  A
C977        H993   1.084       .  S
C978        C979   1.402   1_556  A
C978        H994   1.084       .  S
C979        C989   1.393       .  A
C979        C980   1.410       .  A
C980        C986   1.414   1_565  A
C980        C981   1.407   1_664  A
C981        C983   1.410       .  A
C981        C982   1.412   1_545  A
C982        C990   1.396       .  A
C983        C992   1.399       .  A
C983        C984   1.404   1_556  A
C984        C985   1.399   1_455  A
C984        H995   1.084       .  S
C985        C986   1.403       .  A
C985        H996   1.083       .  S
C986        C987   1.403       .  A
C987        C988   1.401   1_545  A
C987        H997   1.084       .  S
C988        C989   1.402       .  A
C989        H998   1.085       .  S
C990        C991   1.404   1_565  A
C990        H999   1.084       .  S
C991        C992   1.408       .  A
C992       H1000   1.084       .  S
C1001      C1002   1.403   1_554  A
C1001      C1006   1.404       .  A
C1001      H1017   1.083       .  S
C1002      C1003   1.406       .  A
C1002      H1018   1.083       .  S
C1003      C1013   1.409       .  A
C1003      C1004   1.409       .  A
C1004      C1010   1.413       .  A
C1004      C1005   1.418       .  A
C1005      C1007   1.408       .  A
C1005      C1006   1.415   1_556  A
C1006      C1014   1.414       .  A
C1007      C1016   1.402   1_556  A
C1007      C1008   1.405       .  A
C1008      C1009   1.400       .  A
C1008      H1019   1.084       .  S
C1009      C1010   1.404       .  A
C1009      H1020   1.084       .  S
C1010      C1011   1.409       .  A
C1011      C1012   1.409       .  A
C1011      H1021   1.084       .  S
C1012      C1013   1.413       .  A
C1013      H1022   1.084       .  S
C1014      C1015   1.409       .  A
C1014      H1023   1.084       .  S
C1015      C1016   1.414       .  A
C1016      H1024   1.084       .  S
C1025      C1026   1.405       .  A
C1025      C1030   1.406       .  A
C1025      H1041   1.083       .  S
C1026      C1027   1.407   1_556  A
C1026      H1042   1.083       .  S
C1027      C1037   1.413       .  A
C1027      C1028   1.411       .  A
C1028      C1034   1.412       .  A
C1028      C1029   1.419   1_554  A
C1029      C1031   1.410       .  A
C1029      C1030   1.414       .  A
C1030      C1038   1.416       .  A
C1031      C1040   1.402       .  A
C1031      C1032   1.403   1_556  A
C1032      C1033   1.398       .  A
C1032      H1043   1.084       .  S
C1033      C1034   1.403       .  A
C1033      H1044   1.083       .  S
C1034      C1035   1.405       .  A
C1035      C1036   1.408       .  A
C1035      H1045   1.084       .  S
C1036      C1037   1.413       .  A
C1037      H1046   1.084       .  S
C1038      C1039   1.411       .  A
C1038      H1047   1.084       .  S
C1039      C1040   1.410       .  A
C1040      H1048   1.084       .  S
C1049      C1050   1.393       .  A
C1049      C1054   1.400   1_554  A
C1049      H1065   1.084       .  S
C1050      C1051   1.402       .  A
C1050      H1066   1.084       .  S
C1051      C1061   1.390       .  A
C1051      C1052   1.409       .  A
C1052      C1058   1.412   1_554  A
C1052      C1053   1.403   1_554  A
C1053      C1055   1.412       .  A
C1053      C1054   1.413       .  A
C1054      C1062   1.392       .  A
C1055      C1064   1.397       .  A
C1055      C1056   1.403       .  A
C1056      C1057   1.397       .  A
C1056      H1067   1.084       .  S
C1057      C1058   1.403       .  A
C1057      H1068   1.083       .  S
C1058      C1059   1.400   1_556  A
C1059      C1060   1.405       .  A
C1059      H1069   1.084       .  S
C1060      C1061   1.405       .  A
C1061      H1070   1.085       .  S
C1062      C1063   1.398       .  A
C1062      H1071   1.086       .  S
C1063      C1064   1.401       .  A
C1064      H1072   1.085       .  S
C1073      C1074   1.397       .  A
C1073      C1078   1.402       .  A
C1073      H1089   1.084       .  S
C1074      C1075   1.403       .  A
C1074      H1090   1.083       .  S
C1075      C1085   1.400       .  A
C1075      C1076   1.410       .  A
C1076      C1082   1.413       .  A
C1076      C1077   1.416       .  A
C1077      C1079   1.412       .  A
C1077      C1078   1.411       .  A
C1078      C1086   1.401       .  A
C1079      C1088   1.413       .  A
C1079      C1080   1.406       .  A
C1080      C1081   1.405       .  A
C1080      H1091   1.083       .  S
C1081      C1082   1.406       .  A
C1081      H1092   1.084       .  S
C1082      C1083   1.413       .  A
C1083      C1084   1.410       .  A
C1083      H1093   1.084       .  S
C1084      C1085   1.407       .  A
C1085      H1094   1.084       .  S
C1086      C1087   1.407       .  A
C1086      H1095   1.085       .  S
C1087      C1088   1.412       .  A
C1088      H1096   1.084       .  S
C1097      C1098   1.401       .  A
C1097      C1102   1.404       .  A
C1097      H1113   1.084       .  S
C1098      C1099   1.404       .  A
C1098      H1114   1.083       .  S
C1099      C1109   1.406       .  A
C1099      C1100   1.411       .  A
C1100      C1106   1.412       .  A
C1100      C1101   1.416       .  A
C1101      C1103   1.411       .  A
C1101      C1102   1.412       .  A
C1102      C1110   1.407       .  A
C1103      C1112   1.406       .  A
C1103      C1104   1.404       .  A
C1104      C1105   1.401       .  A
C1104      H1115   1.083       .  S
C1105      C1106   1.404       .  A
C1105      H1116   1.084       .  S
C1106      C1107   1.407       .  A
C1107      C1108   1.408       .  A
C1107      H1117   1.085       .  S
C1108      C1109   1.408       .  A
C1109      H1118   1.084       .  S
C1110      C1111   1.409       .  A
C1110      H1119   1.085       .  S
C1111      C1112   1.408       .  A
C1112      H1120   1.084       .  S
C1121      C1122   1.397       .  A
C1121      C1126   1.402       .  A
C1121      H1137   1.083       .  S
C1122      C1123   1.403       .  A
C1122      H1138   1.084       .  S
C1123      C1133   1.399       .  A
C1123      C1124   1.410       .  A
C1124      C1130   1.413   1_565  A
C1124      C1125   1.412   1_565  A
C1125      C1127   1.411       .  A
C1125      C1126   1.413   1_545  A
C1126      C1134   1.401       .  A
C1127      C1136   1.405       .  A
C1127      C1128   1.404       .  A
C1128      C1129   1.402       .  A
C1128      H1139   1.084       .  S
C1129      C1130   1.405       .  A
C1129      H1140   1.083       .  S
C1130      C1131   1.408   1_545  A
C1131      C1132   1.409       .  A
C1131      H1141   1.084   1_565  S
C1132      C1133   1.406       .  A
C1133      H1142   1.085       .  S
C1134      C1135   1.403   1_565  A
C1134      H1143   1.084       .  S
C1135      C1136   1.407       .  A
C1136      H1144   1.085       .  S
C1145      C1146   1.401       .  A
C1145      C1150   1.404       .  A
C1145      H1161   1.084       .  S
C1146      C1147   1.404       .  A
C1146      H1162   1.083       .  S
C1147      C1157   1.407       .  A
C1147      C1148   1.413       .  A
C1148      C1154   1.409   1_565  A
C1148      C1149   1.411       .  A
C1149      C1151   1.412       .  A
C1149      C1150   1.411       .  A
C1150      C1158   1.404       .  A
C1151      C1160   1.399       .  A
C1151      C1152   1.402   1_565  A
C1152      C1153   1.396       .  A
C1152      H1163   1.083       .  S
C1153      C1154   1.403       .  A
C1153      H1164   1.084       .  S
C1154      C1155   1.396       .  A
C1155      C1156   1.409       .  A
C1155      H1165   1.085       .  S
C1156      C1157   1.407   1_545  A
C1157      H1166   1.084       .  S
C1158      C1159   1.405       .  A
C1158      H1167   1.085       .  S
C1159      C1160   1.403       .  A
C1160      H1168   1.084       .  S
C1169      C1170   1.402       .  A
C1169      C1174   1.405       .  A
C1169      H1185   1.084       .  S
C1170      C1171   1.405       .  A
C1170      H1186   1.084       .  S
C1171      C1181   1.407       .  A
C1171      C1172   1.410       .  A
C1172      C1178   1.413       .  A
C1172      C1173   1.418       .  A
C1173      C1175   1.410       .  A
C1173      C1174   1.413       .  A
C1174      C1182   1.411       .  A
C1175      C1184   1.407       .  A
C1175      C1176   1.405       .  A
C1176      C1177   1.401       .  A
C1176      H1187   1.083       .  S
C1177      C1178   1.404       .  A
C1177      H1188   1.084       .  S
C1178      C1179   1.410       .  A
C1179      C1180   1.408       .  A
C1179      H1189   1.084       .  S
C1180      C1181   1.412       .  A
C1181      H1190   1.084       .  S
C1182      C1183   1.410       .  A
C1182      H1191   1.084       .  S
C1183      C1184   1.411       .  A
C1184      H1192   1.084       .  S
C1193      C1194   1.403       .  A
C1193      C1198   1.405       .  A
C1193      H1209   1.083       .  S
C1194      C1195   1.406   1_556  A
C1194      H1210   1.083       .  S
C1195      C1205   1.411       .  A
C1195      C1196   1.410       .  A
C1196      C1202   1.413       .  A
C1196      C1197   1.421   1_554  A
C1197      C1199   1.411       .  A
C1197      C1198   1.413       .  A
C1198      C1206   1.413       .  A
C1199      C1208   1.411       .  A
C1199      C1200   1.406   1_556  A
C1200      C1201   1.404       .  A
C1200      H1211   1.084       .  S
C1201      C1202   1.405       .  A
C1201      H1212   1.083       .  S
C1202      C1203   1.414       .  A
C1203      C1204   1.412       .  A
C1203      H1213   1.084       .  S
C1204      C1205   1.413       .  A
C1205      H1214   1.084       .  S
C1206      C1207   1.411       .  A
C1206      H1215   1.084       .  S
C1207      C1208   1.413       .  A
C1208      H1216   1.084       .  S
C1217      C1218   1.399       .  A
C1217      C1222   1.404       .  A
C1217      H1233   1.083       .  S
C1218      C1219   1.404   1_554  A
C1218      H1234   1.084       .  S
C1219      C1229   1.403       .  A
C1219      C1220   1.412       .  A
C1220      C1226   1.410   1_565  A
C1220      C1221   1.410   1_556  A
C1221      C1223   1.411   1_564  A
C1221      C1222   1.411       .  A
C1222      C1230   1.402       .  A
C1223      C1232   1.399   1_556  A
C1223      C1224   1.402       .  A
C1224      C1225   1.397       .  A
C1224      H1235   1.084       .  S
C1225      C1226   1.403       .  A
C1225      H1236   1.083       .  S
C1226      C1227   1.399   1_545  A
C1227      C1228   1.407       .  A
C1227      H1237   1.084   1_565  S
C1228      C1229   1.408       .  A
C1229      H1238   1.085       .  S
C1230      C1231   1.409   1_565  A
C1230      H1239   1.084       .  S
C1231      C1232   1.406       .  A
C1232      H1240   1.085       .  S
C1241      C1242   1.407       .  A
C1241      C1246   1.407       .  A
C1241      H1257   1.083       .  S
C1242      C1243   1.407       .  A
C1242      H1258   1.083       .  S
C1243      C1253   1.420       .  A
C1243      C1244   1.414       .  A
C1244      C1250   1.408       .  A
C1244      C1245   1.420       .  A
C1245      C1247   1.412       .  A
C1245      C1246   1.410       .  A
C1246      C1254   1.416       .  A
C1247      C1256   1.407       .  A
C1247      C1248   1.403       .  A
C1248      C1249   1.398       .  A
C1248      H1259   1.084       .  S
C1249      C1250   1.404       .  A
C1249      H1260   1.084       .  S
C1250      C1251   1.402       .  A
C1251      C1252   1.413       .  A
C1251      H1261   1.084       .  S
C1252      C1253   1.413       .  A
C1253      H1262   1.084       .  S
C1254      C1255   1.415       .  A
C1254      H1263   1.084       .  S
C1255      C1256   1.409       .  A
C1256      H1264   1.084       .  S
C1265      C1266   1.396       .  A
C1265      C1270   1.402       .  A
C1265      H1281   1.083       .  S
C1266      C1267   1.402       .  A
C1266      H1282   1.084       .  S
C1267      C1277   1.396       .  A
C1267      C1268   1.411       .  A
C1268      C1274   1.411       .  A
C1268      C1269   1.405       .  A
C1269      C1271   1.411       .  A
C1269      C1270   1.411       .  A
C1270      C1278   1.397       .  A
C1271      C1280   1.398       .  A
C1271      C1272   1.403       .  A
C1272      C1273   1.396       .  A
C1272      H1283   1.084       .  S
C1273      C1274   1.402       .  A
C1273      H1284   1.083       .  S
C1274      C1275   1.397       .  A
C1275      C1276   1.404       .  A
C1275      H1285   1.084       .  S
C1276      C1277   1.404       .  A
C1277      H1286   1.085       .  S
C1278      C1279   1.405       .  A
C1278      H1287   1.084       .  S
C1279      C1280   1.405       .  A
C1280      H1288   1.085       .  S
C1289      C1290   1.401       .  A
C1289      C1294   1.404       .  A
C1289      H1305   1.084       .  S
C1290      C1291   1.405       .  A
C1290      H1306   1.083       .  S
C1291      C1301   1.404       .  A
C1291      C1292   1.411       .  A
C1292      C1298   1.412       .  A
C1292      C1293   1.409       .  A
C1293      C1295   1.409       .  A
C1293      C1294   1.413       .  A
C1294      C1302   1.407       .  A
C1295      C1304   1.393       .  A
C1295      C1296   1.402       .  A
C1296      C1297   1.394       .  A
C1296      H1307   1.083       .  S
C1297      C1298   1.401       .  A
C1297      H1308   1.084       .  S
C1298      C1299   1.395       .  A
C1299      C1300   1.401       .  A
C1299      H1309   1.085       .  S
C1300      C1301   1.406       .  A
C1301      H1310   1.084       .  S
C1302      C1303   1.407       .  A
C1302      H1311   1.084       .  S
C1303      C1304   1.407       .  A
C1304      H1312   1.084       .  S
C1313      C1314   1.399       .  A
C1313      C1318   1.403       .  A
C1313      H1329   1.084       .  S
C1314      C1315   1.403       .  A
C1314      H1330   1.083       .  S
C1315      C1325   1.402       .  A
C1315      C1316   1.411       .  A
C1316      C1322   1.413       .  A
C1316      C1317   1.413       .  A
C1317      C1319   1.411       .  A
C1317      C1318   1.412       .  A
C1318      C1326   1.404       .  A
C1319      C1328   1.405       .  A
C1319      C1320   1.405       .  A
C1320      C1321   1.401       .  A
C1320      H1331   1.083       .  S
C1321      C1322   1.404       .  A
C1321      H1332   1.084       .  S
C1322      C1323   1.406       .  A
C1323      C1324   1.406       .  A
C1323      H1333   1.085       .  S
C1324      C1325   1.406       .  A
C1325      H1334   1.084       .  S
C1326      C1327   1.406       .  A
C1326      H1335   1.085       .  S
C1327      C1328   1.409       .  A
C1328      H1336   1.084       .  S
C1337      C1338   1.400       .  A
C1337      C1342   1.405       .  A
C1337      H1353   1.084       .  S
C1338      C1339   1.403       .  A
C1338      H1354   1.084       .  S
C1339      C1349   1.411       .  A
C1339      C1340   1.417       .  A
C1340      C1346   1.407       .  A
C1340      C1341   1.414       .  A
C1341      C1343   1.417       .  A
C1341      C1342   1.407       .  A
C1342      C1350   1.399       .  A
C1343      C1352   1.411       .  A
C1343      C1344   1.403       .  A
C1344      C1345   1.400       .  A
C1344      H1355   1.084       .  S
C1345      C1346   1.405       .  A
C1345      H1356   1.083       .  S
C1346      C1347   1.400       .  A
C1347      C1348   1.410       .  A
C1347      H1357   1.085       .  S
C1348      C1349   1.404       .  A
C1349      H1358   1.084       .  S
C1350      C1351   1.410       .  A
C1350      H1359   1.085       .  S
C1351      C1352   1.403       .  A
C1352      H1360   1.084       .  S
C1361      C1362   1.400       .  A
C1361      C1366   1.404       .  A
C1361      H1377   1.083       .  S
C1362      C1363   1.404       .  A
C1362      H1378   1.084       .  S
C1363      C1373   1.404       .  A
C1363      C1364   1.410       .  A
C1364      C1370   1.413   1_565  A
C1364      C1365   1.414       .  A
C1365      C1367   1.410   1_565  A
C1365      C1366   1.414       .  A
C1366      C1374   1.408       .  A
C1367      C1376   1.403   1_545  A
C1367      C1368   1.405       .  A
C1368      C1369   1.400       .  A
C1368      H1379   1.084       .  S
C1369      C1370   1.404       .  A
C1369      H1380   1.083       .  S
C1370      C1371   1.406       .  A
C1371      C1372   1.408       .  A
C1371      H1381   1.084       .  S
C1372      C1373   1.409   1_545  A
C1373      H1382   1.084       .  S
C1374      C1375   1.406       .  A
C1374      H1383   1.084       .  S
C1375      C1376   1.410       .  A
C1376      H1384   1.085   1_565  S
C1385      C1386   1.396       .  A
C1385      C1390   1.402       .  A
C1385      H1401   1.083       .  S
C1386      C1387   1.404       .  A
C1386      H1402   1.084       .  S
C1387      C1397   1.396   1_565  A
C1387      C1388   1.407   1_565  A
C1388      C1394   1.415       .  A
C1388      C1389   1.412   1_545  A
C1389      C1391   1.409   1_565  A
C1389      C1390   1.413       .  A
C1390      C1398   1.401       .  A
C1391      C1400   1.404   1_545  A
C1391      C1392   1.405       .  A
C1392      C1393   1.402       .  A
C1392      H1403   1.084       .  S
C1393      C1394   1.404       .  A
C1393      H1404   1.083       .  S
C1394      C1395   1.411       .  A
C1395      C1396   1.407       .  A
C1395      H1405   1.084       .  S
C1396      C1397   1.411       .  A
C1397      H1406   1.084   1_445  S
C1398      C1399   1.404       .  A
C1398      H1407   1.084       .  S
C1399      C1400   1.409       .  A
C1400      H1408   1.084   1_565  S
C1409      C1410   1.402       .  A
C1409      C1414   1.404       .  A
C1409      H1425   1.083       .  S
C1410      C1411   1.406   1_545  A
C1410      H1426   1.083       .  S
C1411      C1421   1.405       .  A
C1411      C1412   1.407       .  A
C1412      C1418   1.415       .  A
C1412      C1413   1.418   1_565  A
C1413      C1415   1.408       .  A
C1413      C1414   1.416       .  A
C1414      C1422   1.414       .  A
C1415      C1424   1.403       .  A
C1415      C1416   1.405   1_545  A
C1416      C1417   1.401       .  A
C1416      H1427   1.084       .  S
C1417      C1418   1.403       .  A
C1417      H1428   1.083       .  S
C1418      C1419   1.411       .  A
C1419      C1420   1.407       .  A
C1419      H1429   1.084       .  S
C1420      C1421   1.416       .  A
C1421      H1430   1.084       .  S
C1422      C1423   1.406       .  A
C1422      H1431   1.084       .  S
C1423      C1424   1.410       .  A
C1424      H1432   1.085       .  S
C1433      C1434   1.403       .  A
C1433      C1438   1.405       .  A
C1433      H1449   1.083       .  S
C1434      C1435   1.405       .  A
C1434      H1450   1.084       .  S
C1435      C1445   1.410       .  A
C1435      C1436   1.411       .  A
C1436      C1442   1.413       .  A
C1436      C1437   1.418       .  A
C1437      C1439   1.410       .  A
C1437      C1438   1.414       .  A
C1438      C1446   1.413       .  A
C1439      C1448   1.404       .  A
C1439      C1440   1.404       .  A
C1440      C1441   1.400       .  A
C1440      H1451   1.084       .  S
C1441      C1442   1.404       .  A
C1441      H1452   1.083       .  S
C1442      C1443   1.407       .  A
C1443      C1444   1.407       .  A
C1443      H1453   1.084       .  S
C1444      C1445   1.410       .  A
C1445      H1454   1.085       .  S
C1446      C1447   1.408       .  A
C1446      H1455   1.084       .  S
C1447      C1448   1.408       .  A
C1448      H1456   1.085       .  S
C1457      C1458   1.405       .  A
C1457      C1462   1.407       .  A
C1457      H1473   1.083       .  S
C1458      C1459   1.406       .  A
C1458      H1474   1.083       .  S
C1459      C1469   1.418       .  A
C1459      C1460   1.415       .  A
C1460      C1466   1.407       .  A
C1460      C1461   1.420       .  A
C1461      C1463   1.415       .  A
C1461      C1462   1.409       .  A
C1462      C1470   1.411       .  A
C1463      C1472   1.410       .  A
C1463      C1464   1.403       .  A
C1464      C1465   1.400       .  A
C1464      H1475   1.084       .  S
C1465      C1466   1.405       .  A
C1465      H1476   1.083       .  S
C1466      C1467   1.403       .  A
C1467      C1468   1.415       .  A
C1467      H1477   1.084       .  S
C1468      C1469   1.411       .  A
C1469      H1478   1.084       .  S
C1470      C1471   1.415       .  A
C1470      H1479   1.084       .  S
C1471      C1472   1.407       .  A
C1472      H1480   1.084       .  S
C1481      C1482   1.395       .  A
C1481      C1486   1.403       .  A
C1481      H1497   1.084       .  S
C1482      C1483   1.401       .  A
C1482      H1498   1.084       .  S
C1483      C1493   1.394       .  A
C1483      C1484   1.413   1_545  A
C1484      C1490   1.412       .  A
C1484      C1485   1.402       .  A
C1485      C1487   1.412       .  A
C1485      C1486   1.411   1_565  A
C1486      C1494   1.395       .  A
C1487      C1496   1.398       .  A
C1487      C1488   1.403       .  A
C1488      C1489   1.396       .  A
C1488      H1499   1.083       .  S
C1489      C1490   1.402       .  A
C1489      H1500   1.084       .  S
C1490      C1491   1.396       .  A
C1491      C1492   1.402       .  A
C1491      H1501   1.086       .  S
C1492      C1493   1.398   1_565  A
C1493      H1502   1.085       .  S
C1494      C1495   1.403       .  A
C1494      H1503   1.086       .  S
C1495      C1496   1.401   1_545  A
C1496      H1504   1.085       .  S
