geometry optimzed in LAMMPS
_audit_creation_date              2020-12-01 
_audit_creation_method            'lammps2cif' 
_symmetry_space_group_name_H-M    'P1' 
_symmetry_Int_Tables_number       1 
_symmetry_cell_setting            triclinic 
loop_ 
_symmetry_equiv_pos_as_xyz 
  x,y,z 
_cell_length_a                    30.33149056 
_cell_length_b                    58.43468796301912 
_cell_length_c                    29.591895670858673 
_cell_angle_alpha                 88.91518695863459 
_cell_angle_beta                  89.8173626118776 
_cell_angle_gamma                 89.46871478451871 
loop_ 
_atom_site_label 
_atom_site_type_symbol 
_atom_site_fract_x 
_atom_site_fract_y 
_atom_site_fract_z 
_atom_site_charge 
Zr1        Zr  0.16013994  0.85079338  0.42726287     2.17500
O2          O  0.10087131  0.84400890  0.37375067    -0.51300
O3          O  0.15053117  0.80915761  0.43648707    -0.74500
O4          O  0.18613813  0.85192340  0.34748021    -0.81300
O5          O  0.08464544  0.87227799  0.52479890    -0.83000
O6          O  0.25766487  0.84467677  0.35820924    -0.78600
O7          O  0.08481758  0.86161166  0.45108096    -0.90300
O8          O  0.20065467  0.79510519  0.48702402    -0.76200
O9          O  0.23561415  0.83897670  0.43234789    -0.85700
O10         O  0.17162599  0.83971891  0.50477249    -0.85400
O11         O  0.20367484  0.88369998  0.40469991    -0.72200
O12         O  0.14727365  0.88364997  0.47321448    -0.84300
Zr13       Zr  0.27704009  0.89400356  0.53203542     2.26400
Zr14       Zr  0.27922340  0.87212756  0.41311231     2.06300
Zr15       Zr  0.16020502  0.87268662  0.55042555     2.10000
Zr16       Zr  0.24639847  0.82735855  0.50872975     1.78800
O17         O  0.12377306  0.90281989  0.59277757    -0.93100
O18         O  0.29855483  0.80292969  0.46886283    -0.40900
O19         O  0.23498412  0.86067964  0.55331139    -0.77500
O20         O  0.29195300  0.85964904  0.48952802    -0.96200
O21         O  0.26533311  0.90582076  0.45553811    -0.89500
O22         O  0.20143542  0.90566387  0.52800224    -0.92400
C23         C  0.16754942  0.79273707  0.46053227     1.01400
C24         C  0.06517886  0.86839538  0.48735395     1.14300
C25         C  0.22541808  0.84883537  0.33188132     1.05100
O26         O  0.33361881  0.86016866  0.35729117    -0.94500
O27         O  0.35527291  0.87791081  0.43544310    -0.90300
O28         O  0.35405621  0.89123046  0.50671531    -0.83400
C29         C  0.37478194  0.88451149  0.47128600     1.11700
O30         O  0.12719885  0.92220222  0.39893268    -0.96500
Zr31       Zr  0.18903119  0.91603382  0.45031105     1.88900
O32         O  0.26938679  0.93629784  0.53520570    -0.73100
O33         O  0.27941522  0.90542296  0.36232238    -0.52400
O34         O  0.21292202  0.93727942  0.38313039    -0.97100
O35         O  0.13007278  0.94046954  0.47874326    -0.54300
O36         O  0.22338554  0.94918296  0.47969395    -0.73700
C37         C  0.24923983  0.95239811  0.51277449     0.98700
O38         O  0.32839539  0.90604924  0.59012375    -0.62500
O39         O  0.12190268  0.84397392  0.59633498    -0.57300
O40         O  0.26732704  0.88432042  0.61157896    -0.94000
O41         O  0.19710111  0.87267007  0.62433020    -0.92400
O42         O  0.22456331  0.80592979  0.57636993    -0.92700
O43         O  0.30905421  0.81891551  0.55785897    -0.91500
C44         C  0.23639249  0.87723895  0.63782116     1.17500
H45         H  0.15139023  0.82798274  0.51461822     0.33500
H46         H  0.32137242  0.85375917  0.49435925     0.44300
H47         H  0.19481127  0.91810652  0.54799509     0.37800
H48         H  0.19796833  0.88881953  0.37417401     0.34300
H49         H  0.28728658  0.80226523  0.43755567     0.26100
H50         H  0.31028515  0.91078427  0.36212528     0.32100
H51         H  0.19493613  0.95150811  0.38290025     0.38000
H52         H  0.24287680  0.79181347  0.57643951     0.32400
H53         H  0.09898677  0.83757612  0.57659039     0.31300
H54         H  0.09829001  0.89521880  0.60746454     0.33000
H55         H  0.13294166  0.95508448  0.46153138     0.31900
H56         H  0.30625014  0.83003400  0.58258131     0.35900
H57         H  0.35327006  0.89495120  0.59035696     0.28700
H58         H  0.11131355  0.83126786  0.35476485     0.32900
H59         H  0.11995643  0.90676761  0.38805684     0.35800
H60         H  0.14363207  0.83136911  0.60004981     0.28400
H61         H  0.34098798  0.92060795  0.57873281     0.41200
H62         H  0.34139357  0.87409195  0.33958226     0.31300
H63         H  0.32578470  0.81208434  0.46622490     0.38900
H64         H  0.13893366  0.94421311  0.50989187     0.30800
H65         H  0.27476997  0.89925329  0.33180548     0.30800
H66         H  0.10040541  0.85762347  0.35329179     0.31100
Zr67       Zr  0.66314930  0.86223241  0.42295830     2.17500
O68         O  0.60323877  0.86592013  0.36840828    -0.51300
O69         O  0.65070650  0.82104340  0.41517606    -0.74500
O70         O  0.68911563  0.86648965  0.34382654    -0.81300
O71         O  0.58430621  0.87305709  0.52460446    -0.83000
O72         O  0.76215000  0.87487378  0.34528342    -0.78600
O73         O  0.58776901  0.86988772  0.44810451    -0.90300
O74         O  0.70086693  0.80141915  0.45791010    -0.76200
O75         O  0.73765561  0.84911080  0.42515330    -0.85700
O76         O  0.67101794  0.84331063  0.49508258    -0.85400
O77         O  0.70772752  0.89592717  0.41389402    -0.72200
O78         O  0.64999945  0.88999736  0.48024442    -0.84300
Zr79       Zr  0.77854207  0.89402137  0.54371470     2.26400
Zr80       Zr  0.78238248  0.88283952  0.42033101     2.06300
Zr81       Zr  0.66029845  0.87136695  0.55231771     2.10000
Zr82       Zr  0.74519759  0.83022387  0.49648364     1.78800
O83         O  0.61762157  0.89550445  0.60276183    -0.93100
O84         O  0.79736798  0.80814047  0.45164237    -0.40900
O85         O  0.73547834  0.85938651  0.55221643    -0.77500
O86         O  0.79166118  0.86334069  0.49114277    -0.96200
O87         O  0.76918579  0.91274778  0.47263075    -0.89500
O88         O  0.70276566  0.90536839  0.54320166    -0.92400
C89         C  0.66769678  0.80226218  0.43087483     1.01400
C90         C  0.56628295  0.87265273  0.48523362     1.14300
C91         C  0.72659178  0.87053520  0.32468336     1.05100
O92         O  0.83854536  0.86517518  0.37314176    -0.94500
O93         O  0.85825509  0.88403639  0.44342112    -0.90300
O94         O  0.85614273  0.89175341  0.51818981    -0.83400
C95         C  0.87693741  0.88703569  0.48145255     1.11700
O96         O  0.64776994  0.93727097  0.40778799    -0.96500
Zr97       Zr  0.69304058  0.92356681  0.47074212     1.88900
O98         O  0.76894252  0.93501874  0.56610040    -0.73100
O99         O  0.79831738  0.91974228  0.38462858    -0.52400
O100        O  0.73262287  0.95403802  0.43131316    -0.97100
O101        O  0.62295298  0.94085861  0.49205855    -0.54300
O102        O  0.71275731  0.95117146  0.52608227    -0.73700
C103        C  0.74197431  0.95184448  0.55703639     0.98700
O104        O  0.83353968  0.90075471  0.60203493    -0.62500
O105        O  0.63022213  0.83660888  0.58680470    -0.57300
O106        O  0.76722640  0.87865968  0.61829296    -0.94000
O107        O  0.69564954  0.86842423  0.62747523    -0.92400
O108        O  0.72010573  0.80636736  0.55972090    -0.92700
O109        O  0.80627266  0.81383220  0.53981230    -0.91500
C110        C  0.73510218  0.87145850  0.64243351     1.17500
H111        H  0.65014807  0.83109370  0.49950838     0.33500
H112        H  0.82063273  0.85668532  0.49471232     0.44300
H113        H  0.69506833  0.91505102  0.56813191     0.37800
H114        H  0.70289389  0.90326976  0.38480884     0.34300
H115        H  0.78652813  0.79221448  0.45319301     0.26100
H116        H  0.78075096  0.92006402  0.35646861     0.32100
H117        H  0.71539981  0.96811304  0.43756157     0.38000
H118        H  0.69861734  0.79572037  0.54664628     0.32400
H119        H  0.62308011  0.84079379  0.61826977     0.31300
H120        H  0.60789794  0.88506099  0.62749623     0.33000
H121        H  0.62943133  0.95723674  0.49649250     0.31900
H122        H  0.81070830  0.82467326  0.56468362     0.35900
H123        H  0.85367038  0.88730463  0.60246064     0.28700
H124        H  0.60811382  0.85359631  0.34638421     0.32900
H125        H  0.62703655  0.92463055  0.40227708     0.35800
H126        H  0.60116517  0.83460430  0.57234546     0.28400
H127        H  0.85161796  0.91373025  0.59093613     0.41200
H128        H  0.83485954  0.84852142  0.37841970     0.31300
H129        H  0.79219741  0.81316476  0.41994854     0.38900
H130        H  0.61746325  0.93459681  0.52282028     0.30800
H131        H  0.82925820  0.91831817  0.37421918     0.30800
H132        H  0.60869788  0.88036847  0.35134555     0.31100
Zr133      Zr  0.21429841  0.10656575  0.52187869     2.17500
O134        O  0.15442679  0.09630074  0.47143159    -0.51300
O135        O  0.22203017  0.06413884  0.52638301    -0.74500
O136        O  0.24013398  0.10252886  0.44443830    -0.81300
O137        O  0.12758348  0.13793134  0.59302840    -0.83000
O138        O  0.31416706  0.10783690  0.44272310    -0.78600
O139        O  0.13549882  0.11382065  0.53410723    -0.90300
O140        O  0.25781799  0.05329775  0.59065351    -0.76200
O141        O  0.28275651  0.09100985  0.54640606    -0.85700
O142        O  0.20872933  0.10288511  0.60209825    -0.85400
O143        O  0.26669738  0.13548187  0.49777432    -0.72200
O144        O  0.20162245  0.14480569  0.54925681    -0.84300
Zr145      Zr  0.32238144  0.15184788  0.63219793     2.26400
Zr146      Zr  0.33538390  0.11848698  0.52091271     2.06300
Zr147      Zr  0.19804524  0.14102846  0.62937885     2.10000
Zr148      Zr  0.27794361  0.08794621  0.62681291     1.78800
O149        O  0.15903539  0.17708267  0.64101063    -0.93100
O150        O  0.34194487  0.06253532  0.63211718    -0.40900
O151        O  0.26646056  0.12529528  0.65545245    -0.77500
O152        O  0.33380622  0.11389264  0.60248385    -0.96200
O153        O  0.32551598  0.15611153  0.55146891    -0.89500
O154        O  0.25341540  0.16844010  0.60940993    -0.92400
C155        C  0.23893609  0.04883112  0.55345026     1.01400
C156        C  0.11219191  0.12648400  0.56029490     1.14300
C157        C  0.27713546  0.10327258  0.42327922     1.05100
O158        O  0.36719406  0.08043768  0.51246450    -0.94500
O159        O  0.40821513  0.12434000  0.55222646    -0.90300
O160        O  0.40048893  0.14137724  0.62046799    -0.83400
C161        C  0.42386003  0.13198631  0.58926461     1.11700
O162        O  0.20629985  0.18077488  0.46703348    -0.96500
Zr163      Zr  0.25661444  0.17244271  0.52933986     1.88900
O164        O  0.33911456  0.19216640  0.61555693    -0.73100
O165        O  0.38895023  0.13585313  0.46970580    -0.52400
O166        O  0.29222110  0.18521313  0.45946145    -0.97100
O167        O  0.20527421  0.20341274  0.54714931    -0.54300
O168        O  0.30478072  0.20324913  0.55053275    -0.73700
C169        C  0.33083834  0.20676509  0.58358330     0.98700
O170        O  0.36895530  0.16226948  0.69557773    -0.62500
O171        O  0.14808543  0.12089260  0.68082450    -0.57300
O172        O  0.29038345  0.15437650  0.70981245    -0.94000
O173        O  0.21573786  0.15125961  0.70557204    -0.92400
O174        O  0.22484520  0.06968266  0.67744030    -0.92700
O175        O  0.30761298  0.08465116  0.70308072    -0.91500
C176        C  0.25139385  0.15390059  0.72788159     1.17500
H177        H  0.18476880  0.09288873  0.61051470     0.33500
H178        H  0.36039002  0.10664817  0.61366988     0.44300
H179        H  0.24834602  0.18282917  0.62417615     0.37800
H180        H  0.26566196  0.13911238  0.46591491     0.34300
H181        H  0.33039135  0.04798546  0.64487810     0.26100
H182        H  0.39309495  0.12484412  0.44499766     0.32100
H183        H  0.32333033  0.18789782  0.46770348     0.38000
H184        H  0.23793082  0.05447916  0.68478382     0.32400
H185        H  0.12467084  0.13219285  0.68791369     0.31300
H186        H  0.13555558  0.17333861  0.66319030     0.33000
H187        H  0.21032951  0.21521909  0.52329097     0.31900
H188        H  0.33064104  0.09652913  0.70419666     0.35900
H189        H  0.38479592  0.14806017  0.70487921     0.28700
H190        H  0.16240489  0.08098681  0.46006712     0.32900
H191        H  0.17926179  0.17213825  0.47467514     0.35800
H192        H  0.13312850  0.10929711  0.66251194     0.28400
H193        H  0.39195577  0.17238435  0.68264423     0.41200
H194        H  0.38631534  0.08174845  0.48538208     0.31300
H195        H  0.34942151  0.05903225  0.60038373     0.38900
H196        H  0.21686198  0.21037904  0.57486637     0.30800
H197        H  0.37306011  0.14905165  0.45581064     0.30800
H198        H  0.15666389  0.10673559  0.44476820     0.31100
Zr199      Zr  0.81977709  0.15416855  0.52033395     2.17500
O200        O  0.87433890  0.16405852  0.46264474    -0.51300
O201        O  0.82916120  0.19519089  0.53400417    -0.74500
O202        O  0.78520748  0.15957233  0.44358147    -0.81300
O203        O  0.90807557  0.12493614  0.59927607    -0.83000
O204        O  0.71182885  0.15231360  0.44921069    -0.78600
O205        O  0.89813462  0.14367957  0.53165571    -0.90300
O206        O  0.79594102  0.20431315  0.60028110    -0.76200
O207        O  0.74976948  0.16834155  0.54449453    -0.85700
O208        O  0.82360018  0.15783377  0.60099803    -0.85400
O209        O  0.76846715  0.12495951  0.49963546    -0.72200
O210        O  0.83620882  0.11719729  0.55381471    -0.84300
Zr211      Zr  0.71651991  0.10336367  0.63314371     2.26400
Zr212      Zr  0.69854696  0.13921488  0.52565229     2.06300
Zr213      Zr  0.83707900  0.12072665  0.63463948     2.10000
Zr214      Zr  0.75332535  0.17112592  0.62456760     1.78800
O215        O  0.87735247  0.08578160  0.65495587    -0.93100
O216        O  0.69926290  0.20118299  0.60769687    -0.40900
O217        O  0.76563691  0.13345715  0.65577387    -0.77500
O218        O  0.70108295  0.14212602  0.60591778    -0.96200
O219        O  0.71362224  0.10083651  0.55297325    -0.89500
O220        O  0.78870844  0.09118162  0.61197036    -0.92400
C221        C  0.81973423  0.20929464  0.56559304     1.01400
C222        C  0.92236106  0.13362131  0.56204738     1.14300
C223        C  0.74611462  0.15772451  0.42615336     1.05100
O224        O  0.66250288  0.17660161  0.52123352    -0.94500
O225        O  0.62707740  0.13246194  0.55830694    -0.90300
O226        O  0.63699224  0.10927568  0.61999928    -0.83400
C227        C  0.61270728  0.12098453  0.59231206     1.11700
O228        O  0.82405675  0.08513163  0.45948676    -0.96500
Zr229      Zr  0.78589281  0.08852075  0.53167227     1.88900
O230        O  0.72173176  0.06058106  0.62560323    -0.73100
O231        O  0.64705502  0.12226225  0.47326677    -0.52400
O232        O  0.73895056  0.07002133  0.47698782    -0.97100
O233        O  0.85352207  0.06600610  0.53503565    -0.54300
O234        O  0.76498693  0.05271129  0.56507569    -0.73700
C235        C  0.74214360  0.04643177  0.59928569     0.98700
O236        O  0.66886008  0.08883986  0.69368466    -0.62500
O237        O  0.88653067  0.14339254  0.68013480    -0.57300
O238        O  0.74088033  0.10465343  0.71130691    -0.94000
O239        O  0.81359251  0.11338344  0.71359677    -0.92400
O240        O  0.79273895  0.18156506  0.69253092    -0.92700
O241        O  0.70331025  0.17892613  0.68712044    -0.91500
C242        C  0.77669875  0.10820720  0.73300569     1.17500
H243        H  0.84677348  0.16816003  0.60929559     0.33500
H244        H  0.67366915  0.14775376  0.61818124     0.44300
H245        H  0.79782822  0.07714088  0.62702978     0.37800
H246        H  0.76836642  0.12183528  0.46778107     0.34300
H247        H  0.70782913  0.21409609  0.62690907     0.26100
H248        H  0.63529378  0.10841513  0.48869354     0.32100
H249        H  0.73012696  0.08245396  0.45562042     0.38000
H250        H  0.78999416  0.19844062  0.69369002     0.32400
H251        H  0.86897463  0.15698200  0.68873193     0.31300
H252        H  0.90612488  0.09108669  0.66625396     0.33000
H253        H  0.84506384  0.05044419  0.52587574     0.31900
H254        H  0.68863894  0.16415658  0.69364766     0.35900
H255        H  0.65024642  0.10192022  0.70320870     0.28700
H256        H  0.86382668  0.17864902  0.44875342     0.32900
H257        H  0.84886540  0.09598075  0.46122014     0.35800
H258        H  0.89070864  0.13446944  0.70858420     0.28400
H259        H  0.64835923  0.07803024  0.67949871     0.41200
H260        H  0.64140499  0.17672140  0.54681537     0.31300
H261        H  0.70640703  0.20651263  0.57659398     0.38900
H262        H  0.85953013  0.06450370  0.56778418     0.30800
H263        H  0.62180386  0.13308908  0.47103205     0.30800
H264        H  0.87094266  0.15255053  0.43879459     0.31100
Zr265      Zr  0.23016307  0.88765581  0.04727700     2.17500
O266        O  0.16772004  0.89590389  0.09681675    -0.51300
O267        O  0.24050115  0.92861139  0.06779148    -0.74500
O268        O  0.24735826  0.87738766  0.12466004    -0.81300
O269        O  0.14924178  0.87381396  0.95098694    -0.83000
O270        O  0.31972603  0.86733551  0.13047377    -0.78600
O271        O  0.15255815  0.88280051  0.02515351    -0.90300
O272        O  0.29091050  0.94516048  0.02135662    -0.76200
O273        O  0.30330186  0.90139884  0.04033774    -0.85700
O274        O  0.23463404  0.90384059  0.97314124    -0.85400
O275        O  0.27608779  0.85351906  0.05697876    -0.72200
O276        O  0.21729365  0.85624979  0.99747215    -0.84300
Zr277      Zr  0.34463049  0.85510172  0.92419706     2.26400
Zr278      Zr  0.34935902  0.86833671  0.05183518     2.06300
Zr279      Zr  0.22341420  0.87248122  0.92352435     2.10000
Zr280      Zr  0.30825061  0.91719013  0.96556064     1.78800
O281        O  0.17827648  0.84327362  0.88918879    -0.93100
O282        O  0.37572819  0.93782093  0.98153441    -0.40900
O283        O  0.29602012  0.88732203  0.91298116    -0.77500
O284        O  0.35634496  0.88539422  0.97705651    -0.96200
O285        O  0.33929594  0.83822718  0.99843558    -0.89500
O286        O  0.27216039  0.84028120  0.93052381    -0.92400
C287        C  0.26492618  0.94569204  0.05532518     1.01400
C288        C  0.13120243  0.87757460  0.98921613     1.14300
C289        C  0.28101988  0.87089347  0.14775144     1.05100
O290        O  0.38729684  0.89826093  0.09211142    -0.94500
O291        O  0.42468152  0.86586320  0.02309918    -0.90300
O292        O  0.42197038  0.85745410  0.94816348    -0.83400
C293        C  0.44307879  0.86217279  0.98459494     1.11700
O294        O  0.21828296  0.80567488  0.05962594    -0.96500
Zr295      Zr  0.26647347  0.82383201  0.00390984     1.88900
O296        O  0.35104424  0.81398742  0.91145509    -0.73100
O297        O  0.39089873  0.83807383  0.09050045    -0.52400
O298        O  0.30325726  0.79900350  0.05940453    -0.97100
O299        O  0.20355791  0.80397990  0.97268879    -0.54300
O300        O  0.30500416  0.79530281  0.95911804    -0.73700
C301        C  0.33417817  0.79545253  0.92757075     0.98700
O302        O  0.40241712  0.85897869  0.86710304    -0.62500
O303        O  0.19196876  0.90449972  0.88041112    -0.57300
O304        O  0.31701202  0.86002315  0.84581480    -0.94000
O305        O  0.24288709  0.86622455  0.84686279    -0.92400
O306        O  0.26252398  0.94435469  0.92288605    -0.92700
O307        O  0.35090583  0.93118687  0.90109747    -0.91500
C308        C  0.27933920  0.86309491  0.82635362     1.17500
H309        H  0.21286987  0.91585006  0.96880385     0.33500
H310        H  0.38475184  0.89231931  0.97252821     0.44300
H311        H  0.26630066  0.82929057  0.90736430     0.37800
H312        H  0.27065513  0.84497655  0.08453935     0.34300
H313        H  0.36681248  0.95411155  0.98367268     0.26100
H314        H  0.39718421  0.84407694  0.12084647     0.32100
H315        H  0.33296484  0.79609175  0.04666728     0.38000
H316        H  0.27728271  0.95926311  0.92629682     0.32400
H317        H  0.17431143  0.89731094  0.85653551     0.31300
H318        H  0.15669511  0.85185220  0.87022275     0.33000
H319        H  0.21076284  0.80205268  0.94033303     0.31900
H320        H  0.36948586  0.91795471  0.89237255     0.35900
H321        H  0.39785873  0.84632377  0.84588587     0.28700
H322        H  0.17804365  0.90786115  0.11740354     0.32900
H323        H  0.19975718  0.81835251  0.07111222     0.35800
H324        H  0.21736138  0.91131030  0.86409773     0.28400
H325        H  0.39510627  0.87308571  0.84950798     0.41200
H326        H  0.40717050  0.88991259  0.11331332     0.31300
H327        H  0.38344980  0.93303960  0.01279822     0.38900
H328        H  0.17924471  0.81540798  0.97275968     0.30800
H329        H  0.36927024  0.82576444  0.09586729     0.30800
H330        H  0.16401373  0.88213033  0.11642149     0.31100
Zr331      Zr  0.72863602  0.89410162  0.03207605     2.17500
O332        O  0.66462167  0.90551562  0.07684333    -0.51300
O333        O  0.73519825  0.93640744  0.03553455    -0.74500
O334        O  0.74317689  0.89006859  0.11229348    -0.81300
O335        O  0.65114792  0.87242864  0.94068327    -0.83000
O336        O  0.81415447  0.87873203  0.12344600    -0.78600
O337        O  0.65194023  0.88715248  0.01106002    -0.90300
O338        O  0.78935798  0.94860018  0.98800249    -0.76200
O339        O  0.80287576  0.90649944  0.02523005    -0.85700
O340        O  0.73805132  0.90479116  0.95457504    -0.85400
O341        O  0.77219661  0.86055757  0.05371450    -0.72200
O342        O  0.71529919  0.85976319  0.99076588    -0.84300
Zr343      Zr  0.84643807  0.85065632  0.92654687     2.26400
Zr344      Zr  0.84657170  0.87400240  0.04757302     2.06300
Zr345      Zr  0.72632362  0.87041234  0.91363606     2.10000
Zr346      Zr  0.81325868  0.91595555  0.94712269     1.78800
O347        O  0.66698499  0.85284793  0.87155845    -0.93100
O348        O  0.87927132  0.93631424  0.96980776    -0.40900
O349        O  0.80092905  0.88271456  0.90297224    -0.77500
O350        O  0.85892543  0.88467052  0.96958875    -0.96200
O351        O  0.83534784  0.84018873  0.00423374    -0.89500
O352        O  0.77224782  0.83772305  0.93297683    -0.92400
C353        C  0.76023670  0.95206682  0.01823102     1.01400
C354        C  0.63188460  0.87889823  0.97687292     1.14300
C355        C  0.77534953  0.88412554  0.13805098     1.05100
O356        O  0.88300651  0.90821242  0.07353847    -0.94500
O357        O  0.92242543  0.86603259  0.02561695    -0.90300
O358        O  0.92284782  0.85511843  0.95211168    -0.83400
C359        C  0.94245012  0.86066602  0.98892348     1.11700
O360        O  0.70311357  0.81481029  0.06098565    -0.96500
Zr361      Zr  0.76135037  0.82746997  0.00965338     1.88900
O362        O  0.85517711  0.80903430  0.93305307    -0.73100
O363        O  0.89089168  0.85072907  0.09955022    -0.52400
O364        O  0.78437623  0.80641589  0.07758856    -0.97100
O365        O  0.70655824  0.80625864  0.96769426    -0.54300
O366        O  0.80787549  0.79580806  0.98675069    -0.73700
C367        C  0.83943379  0.79297829  0.95846627     0.98700
O368        O  0.90549621  0.84354994  0.87229665    -0.62500
O369        O  0.71426101  0.90203881  0.86011362    -0.57300
O370        O  0.82142130  0.85496362  0.84699603    -0.94000
O371        O  0.74860353  0.84820155  0.85047724    -0.92400
O372        O  0.77690374  0.93987731  0.88991962    -0.92700
O373        O  0.86461268  0.92555181  0.88652422    -0.91500
C374        C  0.78374640  0.85173747  0.82808090     1.17500
H375        H  0.71778151  0.91691460  0.94577668     0.33500
H376        H  0.88791385  0.89089808  0.96490418     0.44300
H377        H  0.76732407  0.82455087  0.91447006     0.37800
H378        H  0.76501203  0.85421467  0.08303808     0.34300
H379        H  0.87516991  0.95216692  0.95804473     0.26100
H380        H  0.88835878  0.85798586  0.12940627     0.32100
H381        H  0.77893745  0.79011000  0.07118638     0.38000
H382        H  0.78533971  0.95572315  0.89712008     0.32400
H383        H  0.71550414  0.89495358  0.82999703     0.31300
H384        H  0.65836190  0.86430404  0.84806129     0.33000
H385        H  0.67911109  0.81548492  0.96999221     0.31900
H386        H  0.88180332  0.91128312  0.88214609     0.35900
H387        H  0.89464033  0.83123233  0.85280397     0.28700
H388        H  0.67392432  0.91915791  0.09350465     0.32900
H389        H  0.70181745  0.82659308  0.08456513     0.35800
H390        H  0.68289998  0.90638666  0.86418244     0.28400
H391        H  0.90641302  0.85736343  0.85242456     0.41200
H392        H  0.90629250  0.90240534  0.09425229     0.31300
H393        H  0.87661401  0.93767093  0.00298545     0.38900
H394        H  0.70082056  0.79227129  0.98608089     0.30800
H395        H  0.87493445  0.83609445  0.10251950     0.30800
H396        H  0.66067388  0.89340573  0.10035766     0.31100
Zr397      Zr  0.28822999  0.09813858  0.11998747     2.17500
O398        O  0.35116794  0.08130850  0.16069886    -0.51300
O399        O  0.28194757  0.05550107  0.11353943    -0.74500
O400        O  0.27601125  0.09710307  0.20166143    -0.81300
O401        O  0.36314782  0.12903479  0.03587763    -0.83000
O402        O  0.20421715  0.10585563  0.21580464    -0.78600
O403        O  0.36441628  0.10695574  0.09944397    -0.90300
O404        O  0.22564568  0.04737014  0.06659769    -0.76200
O405        O  0.21388890  0.08647590  0.11222233    -0.85700
O406        O  0.27792325  0.09340759  0.04063836    -0.85400
O407        O  0.24574351  0.13041165  0.14848276    -0.72200
O408        O  0.29966761  0.13559717  0.08518138    -0.84300
Zr409      Zr  0.16928466  0.14880909  0.02558556     2.26400
Zr410      Zr  0.17147306  0.11749236  0.14207778     2.06300
Zr411      Zr  0.28878435  0.13053361  0.00657107     2.10000
Zr412      Zr  0.20255544  0.08279100  0.03266024     1.78800
O413        O  0.34476202  0.15274595  0.96669493    -0.93100
O414        O  0.13384145  0.06261820  0.04748417    -0.40900
O415        O  0.21449573  0.11880096  0.99535070    -0.77500
O416        O  0.15737171  0.11219078  0.06259101    -0.96200
O417        O  0.18067105  0.15414124  0.10460988    -0.89500
O418        O  0.24324647  0.16149087  0.03249826    -0.92400
C419        C  0.25606102  0.04122265  0.09396011     1.01400
C420        C  0.38365107  0.11893427  0.06852114     1.14300
C421        C  0.24354620  0.10028565  0.22884972     1.05100
O422        O  0.12944824  0.08348700  0.16255438    -0.94500
O423        O  0.09561069  0.12677559  0.12360905    -0.90300
O424        O  0.09387747  0.14297658  0.05300072    -0.83400
C425        C  0.07504489  0.13492244  0.08891922     1.11700
O426        O  0.31818743  0.17488432  0.15745951    -0.96500
Zr427      Zr  0.25432667  0.16687669  0.11080954     1.88900
O428        O  0.16095969  0.18972777  0.03830172    -0.73100
O429        O  0.13784924  0.14037647  0.20109951    -0.52400
O430        O  0.23310249  0.18036998  0.18522605    -0.97100
O431        O  0.30533460  0.19501167  0.07880399    -0.54300
O432        O  0.20575343  0.20004200  0.09539275    -0.73700
C433        C  0.17526367  0.20443804  0.06623674     0.98700
O434        O  0.11522322  0.16163616  0.96949933    -0.62500
O435        O  0.30666051  0.10265432  0.94901299    -0.57300
O436        O  0.18947857  0.14950087  0.94441651    -0.94000
O437        O  0.26361514  0.15315112  0.94277678    -0.92400
O438        O  0.23574144  0.06142355  0.97108262    -0.92700
O439        O  0.15465056  0.07874986  0.96761283    -0.91500
C440        C  0.22616794  0.15307268  0.92326132     1.17500
H441        H  0.29810183  0.08205241  0.02900781     0.33500
H442        H  0.12824061  0.10637437  0.05746372     0.44300
H443        H  0.24766805  0.17538831  0.01498254     0.49000
H444        H  0.25313418  0.13432782  0.17894612     0.34300
H445        H  0.13819532  0.04728749  0.03439094     0.26100
H446        H  0.12161952  0.12920888  0.22028702     0.32100
H447        H  0.24139456  0.19672355  0.18502504     0.38000
H448        H  0.25993073  0.05225070  0.98492737     0.32400
H449        H  0.27764157  0.09744288  0.93825267     0.31300
H450        H  0.34115176  0.16849131  0.97804558     0.33000
H451        H  0.30276667  0.20835621  0.09881437     0.31900
H452        H  0.13313403  0.09151169  0.97009259     0.35900
H453        H  0.09831504  0.14786626  0.96182857     0.28700
H454        H  0.36364059  0.06957882  0.14046101     0.32900
H455        H  0.34175229  0.16462043  0.14614155     0.35800
H456        H  0.31830016  0.11193990  0.92338373     0.28400
H457        H  0.09405470  0.17157434  0.98568352     0.41200
H458        H  0.13837959  0.07945368  0.19385813     0.31300
H459        H  0.13362796  0.05981625  0.08055079     0.38900
H460        H  0.29214137  0.20050925  0.05002379     0.30800
H461        H  0.16263160  0.14536822  0.22012734     0.30800
H462        H  0.33895876  0.07216155  0.18620720     0.31100
Zr463      Zr  0.66791600  0.15429868  0.12796953     2.17500
O464        O  0.60700123  0.16600004  0.17667839    -0.51300
O465        O  0.65640916  0.19478149  0.11008085    -0.74500
O466        O  0.68982540  0.16043727  0.20750377    -0.81300
O467        O  0.59555329  0.12631598  0.03743171    -0.83000
O468        O  0.76373810  0.15487501  0.21471482    -0.78600
O469        O  0.59289958  0.14330745  0.10569664    -0.90300
O470        O  0.70457979  0.20627957  0.05582864    -0.76200
O471        O  0.74148589  0.16757286  0.11897249    -0.85700
O472        O  0.67849947  0.16033123  0.04848197    -0.85400
O473        O  0.71389898  0.12399805  0.15898867    -0.72200
O474        O  0.65767666  0.11831253  0.09190807    -0.84300
Zr475      Zr  0.78908584  0.10539198  0.03579819     2.26400
Zr476      Zr  0.78790812  0.13684142  0.14643962     2.06300
Zr477      Zr  0.67124220  0.12416259  0.01259853     2.10000
Zr478      Zr  0.75192629  0.17323095  0.03999217     1.78800
O479        O  0.62863328  0.09351148  0.97988785    -0.93100
O480        O  0.80406051  0.19942007  0.07339333    -0.40900
O481        O  0.74528280  0.13657930  0.00496579    -0.77500
O482        O  0.79956629  0.14299182  0.06711220    -0.96200
O483        O  0.77766601  0.09980023  0.11486614    -0.89500
O484        O  0.71459039  0.09355561  0.04327213    -0.92400
C485        C  0.67189385  0.20994306  0.08259664     1.01400
C486        C  0.57429008  0.13380057  0.07172084     1.14300
C487        C  0.72589486  0.16023324  0.23063112     1.05100
O488        O  0.83996763  0.16428252  0.17596626    -0.94500
O489        O  0.86392916  0.13140432  0.12504187    -0.90300
O490        O  0.86524152  0.11071895  0.06141017    -0.83400
C491        C  0.88473615  0.12133129  0.09329554     1.11700
O492        O  0.65055764  0.08360167  0.18489139    -0.96500
Zr493      Zr  0.70252978  0.08835183  0.12264565     1.88900
O494        O  0.78242058  0.06309512  0.04143126    -0.73100
O495        O  0.81033771  0.10879901  0.20400496    -0.52400
O496        O  0.73579931  0.06725980  0.18585429    -0.97100
O497        O  0.63565907  0.06786427  0.10359592    -0.54300
O498        O  0.72958115  0.05313503  0.09240908    -0.73700
C499        C  0.75834998  0.04823678  0.06251380     0.98700
O500        O  0.84360667  0.08671379  0.98763755    -0.62500
O501        O  0.64392852  0.15208310  0.95699885    -0.57300
O502        O  0.77903011  0.11024521  0.95450677    -0.94000
O503        O  0.70551565  0.11301504  0.94092328    -0.92400
O504        O  0.72757954  0.18685840  0.96579701    -0.92700
O505        O  0.81194133  0.18470200  0.98986633    -0.91500
C506        C  0.74581016  0.11080433  0.92771485     1.17500
H507        H  0.65721124  0.17108753  0.03610605     0.33500
H508        H  0.82847534  0.14876503  0.06008420     0.44300
H509        H  0.70802489  0.08015382  0.02607764     0.37800
H510        H  0.70848643  0.12111524  0.19072648     0.34300
H511        H  0.78754657  0.20670165  0.09827433     0.26100
H512        H  0.83365866  0.09951087  0.18943821     0.32100
H513        H  0.76705668  0.06501755  0.17711249     0.38000
H514        H  0.73162062  0.20365297  0.96612671     0.32400
H515        H  0.63273457  0.14282429  0.93189961     0.31300
H516        H  0.60859163  0.10128911  0.95805079     0.33000
H517        H  0.64441384  0.05152235  0.10250384     0.31900
H518        H  0.83387239  0.17208796  0.99222479     0.35900
H519        H  0.86151281  0.07684365  0.00819867     0.28700
H520        H  0.61507362  0.18123703  0.18800534     0.32900
H521        H  0.63139446  0.09739937  0.18291323     0.35800
H522        H  0.61720737  0.15888360  0.97077532     0.28400
H523        H  0.82713064  0.07569147  0.96925471     0.41200
H524        H  0.82541972  0.17941349  0.17188939     0.31300
H525        H  0.82597657  0.18939071  0.08887252     0.38900
H526        H  0.62962568  0.07230207  0.07174427     0.30800
H527        H  0.82620144  0.11781658  0.22669792     0.30800
H528        H  0.60815294  0.15568759  0.20357280     0.31100
Zr529      Zr  0.51450984  0.39688030  0.46773228     2.17500
O530        O  0.57374228  0.40969942  0.41751091    -0.51300
O531        O  0.50870395  0.43985257  0.46349936    -0.74500
O532        O  0.49757462  0.39034916  0.38849860    -0.81300
O533        O  0.59793398  0.37777327  0.55885616    -0.83000
O534        O  0.42863959  0.37602860  0.38214124    -0.78600
O535        O  0.59205207  0.38935657  0.48543383    -0.90300
O536        O  0.46197255  0.45284661  0.51747758    -0.76200
O537        O  0.43947846  0.40830353  0.47469886    -0.85700
O538        O  0.50684076  0.40914886  0.54360552    -0.85400
O539        O  0.47413502  0.36171560  0.45463524    -0.72200
O540        O  0.53142641  0.36371891  0.51487911    -0.84300
Zr541      Zr  0.40388673  0.35522573  0.58580457     2.26400
Zr542      Zr  0.39888064  0.37426129  0.45992730     2.06300
Zr543      Zr  0.52396521  0.37630003  0.59000811     2.10000
Zr544      Zr  0.43100491  0.41956497  0.55163347     1.78800
O545        O  0.57278708  0.34839768  0.62678595    -0.93100
O546        O  0.36963848  0.44043228  0.51648925    -0.40900
O547        O  0.44867283  0.38792935  0.60034401    -0.77500
O548        O  0.38738884  0.38725310  0.53597354    -0.96200
O549        O  0.41309094  0.34220343  0.51017795    -0.89500
O550        O  0.47908629  0.34312418  0.58028068    -0.92400
C551        C  0.48873711  0.45616555  0.48489333     1.01400
C552        C  0.61460404  0.38258495  0.51996740     1.14300
C553        C  0.46609339  0.38208967  0.36511524     1.05100
O554        O  0.35957912  0.40762290  0.42962709    -0.94500
O555        O  0.32465496  0.36507586  0.48438585    -0.90300
O556        O  0.32657043  0.35678162  0.56005775    -0.83400
C557        C  0.30595655  0.36056502  0.52245332     1.11700
O558        O  0.55464610  0.31796393  0.46666641    -0.96500
Zr559      Zr  0.48770182  0.33007460  0.50545236     1.88900
O560        O  0.40159862  0.31334122  0.59141909    -0.73100
O561        O  0.35575737  0.34817542  0.41485893    -0.52400
O562        O  0.47232329  0.30844132  0.43783691    -0.97100
O563        O  0.53565476  0.30454951  0.54966449    -0.54300
O564        O  0.43787686  0.29988518  0.53070397    -0.73700
C565        C  0.41230364  0.29698227  0.56494290     0.98700
O566        O  0.34457421  0.35302390  0.64164593    -0.62500
O567        O  0.55648733  0.40772383  0.63091579    -0.57300
O568        O  0.42780603  0.36106266  0.66485248    -0.94000
O569        O  0.50085662  0.36972599  0.66627912    -0.92400
O570        O  0.45798465  0.44392729  0.61114038    -0.92700
O571        O  0.37659035  0.42774000  0.60993837    -0.91500
C572        C  0.46407198  0.36549607  0.68555538     1.17500
H573        H  0.52619136  0.42174303  0.54979176     0.33500
H574        H  0.35778921  0.39298346  0.54001395     0.44300
H575        H  0.48566446  0.33141237  0.60278758     0.37800
H576        H  0.48171764  0.35469654  0.42646267     0.34300
H577        H  0.34248904  0.43371511  0.52956185     0.26100
H578        H  0.35607295  0.35444981  0.38356090     0.32100
H579        H  0.47566594  0.29218700  0.44738576     0.38000
H580        H  0.46506090  0.43325139  0.63648950     0.32400
H581        H  0.53350054  0.41247787  0.65270501     0.31300
H582        H  0.58735796  0.35683354  0.65120513     0.33000
H583        H  0.51591160  0.29596752  0.57044379     0.31900
H584        H  0.37281774  0.41293823  0.62625536     0.35900
H585        H  0.35428791  0.34164466  0.66484770     0.28700
H586        H  0.56065722  0.42201297  0.39828820     0.32900
H587        H  0.56791899  0.33235067  0.45509282     0.35800
H588        H  0.57966383  0.40041413  0.64989926     0.28400
H589        H  0.34445226  0.36791668  0.65708515     0.41200
H590        H  0.34976776  0.40300133  0.39928455     0.31300
H591        H  0.37088887  0.45598388  0.52911153     0.38900
H592        H  0.55229624  0.31474519  0.56955231     0.30800
H593        H  0.37368823  0.33396727  0.41393735     0.30800
H594        H  0.57970849  0.39696616  0.39665797     0.31100
Zr595      Zr  0.02157313  0.39202456  0.44949834     2.17500
O596        O  0.08692564  0.39688646  0.40214837    -0.51300
O597        O  0.01271342  0.43345755  0.42721547    -0.74500
O598        O  0.00373157  0.38480696  0.37114911    -0.81300
O599        O  0.09844025  0.37381233  0.54941499    -0.83000
O600        O  0.93012571  0.37832179  0.36514686    -0.78600
O601        O  0.09827574  0.38446716  0.47508143    -0.90300
O602        O  0.96075681  0.44925650  0.47237076    -0.76200
O603        O  0.94981349  0.40826009  0.45663137    -0.85700
O604        O  0.01688440  0.40600650  0.52456209    -0.85400
O605        O  0.97200225  0.36026316  0.43728661    -0.72200
O606        O  0.03090660  0.35890231  0.49858364    -0.84300
Zr607      Zr  0.90109035  0.35853834  0.56814071     2.26400
Zr608      Zr  0.90022667  0.37775349  0.44306068     2.06300
Zr609      Zr  0.02331257  0.37291462  0.57321867     2.10000
Zr610      Zr  0.94455507  0.42161877  0.53185261     1.78800
O611        O  0.07081024  0.34472743  0.61107926    -0.93100
O612        O  0.87556381  0.44282231  0.52267020    -0.40900
O613        O  0.95156874  0.38918795  0.58230987    -0.77500
O614        O  0.89298354  0.39182080  0.51900166    -0.96200
O615        O  0.90776404  0.34490008  0.49282982    -0.89500
O616        O  0.97295913  0.34217916  0.56252734    -0.92400
C617        C  0.98687662  0.45028914  0.43828396     1.01400
C618        C  0.11790747  0.37803002  0.51196482     1.14300
C619        C  0.96915249  0.38047277  0.34798722     1.05100
O620        O  0.86867173  0.41267836  0.41025354    -0.94500
O621        O  0.82397624  0.37571496  0.46823654    -0.90300
O622        O  0.82488175  0.36484634  0.54254978    -0.83400
C623        C  0.80473243  0.37102694  0.50597320     1.11700
O624        O  0.03538608  0.31300447  0.43739953    -0.96500
Zr625      Zr  0.97967937  0.32852704  0.48799303     1.88900
O626        O  0.88555320  0.31714553  0.56869711    -0.73100
O627        O  0.85168095  0.35394037  0.39899020    -0.52400
O628        O  0.94947259  0.30774847  0.42476646    -0.97100
O629        O  0.03168051  0.30320696  0.52740680    -0.54300
O630        O  0.93165745  0.29954100  0.51934447    -0.73700
C631        C  0.89980100  0.29938537  0.54776102     0.98700
O632        O  0.84784740  0.36074239  0.62999651    -0.62500
O633        O  0.04961576  0.40434908  0.61852532    -0.57300
O634        O  0.92639680  0.35870427  0.64762450    -0.94000
O635        O  0.00099923  0.36258589  0.64775249    -0.92400
O636        O  0.99374657  0.44793095  0.56935683    -0.92700
O637        O  0.91377308  0.43782606  0.60041409    -0.91500
C638        C  0.96414032  0.35974466  0.66758737     1.17500
H639        H  0.03974324  0.41701763  0.52995608     0.33500
H640        H  0.86488729  0.39922718  0.52366745     0.44300
H641        H  0.97724053  0.33006710  0.58479966     0.37800
H642        H  0.97654455  0.35241797  0.40933921     0.34300
H643        H  0.88429903  0.45903097  0.51891247     0.26100
H644        H  0.85188502  0.36062036  0.36799998     0.32100
H645        H  0.91712373  0.30849363  0.42908576     0.38000
H646        H  0.98092333  0.46331424  0.56313764     0.32400
H647        H  0.02415477  0.40858075  0.63776698     0.31300
H648        H  0.08743936  0.35341439  0.63372790     0.33000
H649        H  0.01493014  0.29642459  0.55303533     0.31900
H650        H  0.88835001  0.42796454  0.60811939     0.35900
H651        H  0.83314032  0.37586858  0.62638302     0.28700
H652        H  0.07840119  0.40826476  0.37850807     0.32900
H653        H  0.04144217  0.32558360  0.41542465     0.35800
H654        H  0.07106256  0.39716906  0.63972208     0.28400
H655        H  0.82479839  0.34938956  0.62343111     0.41200
H656        H  0.84407571  0.40739714  0.39128983     0.31300
H657        H  0.86492043  0.43842901  0.49254691     0.38900
H658        H  0.05289158  0.31362217  0.54162423     0.30800
H659        H  0.86752397  0.33915083  0.39672418     0.30800
H660        H  0.09038252  0.38230487  0.38589110     0.31100
Zr661      Zr  0.96209146  0.60473730  0.37620681     2.17500
O662        O  0.89967082  0.59255797  0.33106313    -0.51300
O663        O  0.96657771  0.56134273  0.37597163    -0.74500
O664        O  0.97442766  0.61027100  0.29502777    -0.81300
O665        O  0.88627618  0.62844039  0.46901005    -0.83000
O666        O  0.04377097  0.62323828  0.28236737    -0.78600
O667        O  0.88635971  0.61478726  0.39786841    -0.90300
O668        O  0.02373015  0.54910357  0.41955338    -0.76200
O669        O  0.03687506  0.59257147  0.37960758    -0.85700
O670        O  0.97339019  0.59319690  0.45303106    -0.85400
O671        O  0.00337549  0.63909461  0.35598854    -0.72200
O672        O  0.95074297  0.63890511  0.42035797    -0.84300
Zr673      Zr  0.08310132  0.64607960  0.47976939     2.26400
Zr674      Zr  0.07805943  0.62567039  0.35714327     2.06300
Zr675      Zr  0.96223743  0.62708698  0.49633282     2.10000
Zr676      Zr  0.04917248  0.58184735  0.45704423     1.78800
O677        O  0.90612237  0.64553365  0.54261656    -0.93100
O678        O  0.10996952  0.55811404  0.42984976    -0.40900
O679        O  0.03753899  0.61437352  0.50312296    -0.77500
O680        O  0.09375916  0.61296975  0.43343001    -0.96200
O681        O  0.06923741  0.65849332  0.40377705    -0.89500
O682        O  0.00822025  0.65954609  0.47820666    -0.92400
C683        C  0.99223710  0.54530641  0.39261095     1.01400
C684        C  0.86647260  0.62333443  0.43222823     1.14300
C685        C  0.00507156  0.61771090  0.26869319     1.05100
O686        O  0.11453371  0.59421690  0.31898192    -0.94500
O687        O  0.15467717  0.63151799  0.37519909    -0.90300
O688        O  0.15834356  0.64191191  0.44898356    -0.83400
C689        C  0.17616778  0.63655385  0.41087244     1.11700
O690        O  0.92787775  0.68314417  0.36347773    -0.96500
Zr691      Zr  0.99531507  0.67186159  0.40288357     1.88900
O692        O  0.09110129  0.68784228  0.47854165    -0.73100
O693        O  0.11480321  0.65485088  0.31132546    -0.52400
O694        O  0.00866072  0.69215429  0.33165510    -0.97100
O695        O  0.95038819  0.69898920  0.44531856    -0.54300
O696        O  0.04881834  0.70167743  0.42093316    -0.73700
C697        C  0.07882341  0.70401141  0.45113433     0.98700
O698        O  0.14587155  0.64994906  0.53032498    -0.62500
O699        O  0.94703882  0.59451124  0.54640190    -0.57300
O700        O  0.06289054  0.63918464  0.55984661    -0.94000
O701        O  0.98976590  0.64623397  0.56123001    -0.92400
O702        O  0.01440191  0.55858356  0.51610548    -0.92700
O703        O  0.10343777  0.57270780  0.51525715    -0.91500
C704        C  0.02613088  0.64189798  0.58111505     1.17500
H705        H  0.95364161  0.58102646  0.46192273     0.33500
H706        H  0.12293949  0.60646858  0.43610093     0.44300
H707        H  0.00412093  0.67210059  0.49857587     0.37800
H708        H  0.99430637  0.64585620  0.32757188     0.34300
H709        H  0.10884060  0.55997246  0.39655672     0.26100
H710        H  0.11266060  0.64971997  0.27973737     0.32100
H711        H  0.01320336  0.70829952  0.33990981     0.38000
H712        H  0.01985998  0.56678612  0.54448022     0.32400
H713        H  0.96065140  0.59852465  0.57554222     0.31300
H714        H  0.90406079  0.63608242  0.57065142     0.33000
H715        H  0.94742941  0.71258223  0.42501714     0.31900
H716        H  0.12292139  0.58620688  0.51566327     0.35900
H717        H  0.13605246  0.66043211  0.55433053     0.28700
H718        H  0.91085532  0.57974538  0.31275307     0.32900
H719        H  0.91218527  0.66862090  0.35856014     0.35800
H720        H  0.91489478  0.59527667  0.55215002     0.28400
H721        H  0.14927476  0.63480387  0.54558322     0.41200
H722        H  0.13240632  0.60172441  0.29499435     0.31300
H723        H  0.13741972  0.56592770  0.43842313     0.38900
H724        H  0.96941227  0.70433317  0.47001491     0.30800
H725        H  0.09519814  0.66843447  0.31297774     0.30800
H726        H  0.89342490  0.60512282  0.30899764     0.31100
Zr727      Zr  0.58222249  0.65854198  0.35845919     2.17500
O728        O  0.64025282  0.67042229  0.30600860    -0.51300
O729        O  0.59281327  0.70005581  0.36917862    -0.74500
O730        O  0.56119968  0.65606437  0.27734939    -0.81300
O731        O  0.65660680  0.63902713  0.45843466    -0.83000
O732        O  0.48786754  0.66159370  0.27908127    -0.78600
O733        O  0.65726959  0.64672656  0.38256090    -0.90300
O734        O  0.54285177  0.71227403  0.42013380    -0.76200
O735        O  0.50712332  0.67145183  0.36311229    -0.85700
O736        O  0.57011642  0.66748439  0.43631854    -0.85400
O737        O  0.53758763  0.62634390  0.33637327    -0.72200
O738        O  0.59459123  0.62438051  0.40366975    -0.84300
Zr739      Zr  0.46203920  0.61298414  0.46145436     2.26400
Zr740      Zr  0.46263371  0.63913801  0.34311283     2.06300
Zr741      Zr  0.58008468  0.63333516  0.48117883     2.10000
Zr742      Zr  0.49566269  0.68018845  0.44042278     1.78800
O743        O  0.61733304  0.60010568  0.51484663    -0.93100
O744        O  0.44027719  0.70402139  0.40233313    -0.40900
O745        O  0.50516043  0.64544982  0.48348887    -0.77500
O746        O  0.45027464  0.64879538  0.42014790    -0.96200
O747        O  0.47460306  0.60392644  0.38447895    -0.89500
O748        O  0.53738231  0.60114258  0.45902698    -0.92400
C749        C  0.57642892  0.71575693  0.39448271     1.01400
C750        C  0.67670018  0.64194338  0.42047674     1.14300
C751        C  0.52350965  0.65779578  0.25737624     1.05100
O752        O  0.40444988  0.65834046  0.29982004    -0.94500
O753        O  0.38580919  0.63428227  0.36501122    -0.90300
O754        O  0.38587354  0.61739477  0.43488132    -0.83400
C755        C  0.36617647  0.62619536  0.40020427     1.11700
O756        O  0.60708266  0.58555055  0.32481018    -0.96500
Zr757      Zr  0.55064505  0.59283616  0.38149794     1.88900
O758        O  0.47010249  0.57010210  0.46589263    -0.73100
O759        O  0.45406804  0.60880808  0.28864439    -0.52400
O760        O  0.52382940  0.57155391  0.31731665    -0.97100
O761        O  0.61089641  0.57040812  0.41492264    -0.54300
O762        O  0.51804077  0.55870266  0.41152812    -0.73700
C763        C  0.49128999  0.55442943  0.44381868     0.98700
O764        O  0.39697251  0.60234547  0.50559009    -0.62500
O765        O  0.61405786  0.65807419  0.53640343    -0.57300
O766        O  0.47159280  0.62078313  0.54138479    -0.94000
O767        O  0.54145662  0.63254483  0.55456823    -0.92400
O768        O  0.51395250  0.70039043  0.50890457    -0.92700
O769        O  0.43702915  0.68907370  0.49386177    -0.91500
C770        C  0.50196652  0.62772318  0.56781272     1.17500
H771        H  0.59062336  0.67874461  0.44671879     0.33500
H772        H  0.42117231  0.65490800  0.42536213     0.44300
H773        H  0.54333972  0.58822919  0.47897613     0.37800
H774        H  0.54304513  0.62096922  0.30629127     0.34300
H775        H  0.45616835  0.71794091  0.39232771     0.26100
H776        H  0.42256240  0.60463050  0.29078502     0.32100
H777        H  0.49179187  0.56993532  0.32274332     0.38000
H778        H  0.54643315  0.70189444  0.50811160     0.32400
H779        H  0.64118920  0.64987831  0.54622176     0.31300
H780        H  0.63960627  0.60655804  0.53526992     0.33000
H781        H  0.59791140  0.56203971  0.44106331     0.31900
H782        H  0.43009101  0.67420232  0.50872645     0.35900
H783        H  0.40675598  0.58973109  0.52603336     0.28700
H784        H  0.62720298  0.68287095  0.28704902     0.32900
H785        H  0.61155901  0.56874065  0.32519154     0.35800
H786        H  0.62475439  0.67154054  0.51895248     0.28400
H787        H  0.39051934  0.61535635  0.52563799     0.41200
H788        H  0.39896121  0.67292943  0.31545541     0.31300
H789        H  0.43358764  0.69601538  0.37403684     0.38900
H790        H  0.63022736  0.58187717  0.42873974     0.30800
H791        H  0.45690666  0.61656852  0.25875536     0.30800
H792        H  0.64478263  0.65748428  0.28530962     0.31100
Zr793      Zr  0.08324441  0.35264779  0.07126579     2.17500
O794        O  0.14173208  0.34589274  0.12648634    -0.51300
O795        O  0.09796183  0.31102646  0.07397103    -0.74500
O796        O  0.05737788  0.35823147  0.14929151    -0.81300
O797        O  0.16155778  0.37012995  0.97350941    -0.83000
O798        O  0.98702158  0.34887340  0.14030558    -0.78600
O799        O  0.15750991  0.36418077  0.04971988    -0.90300
O800        O  0.05249773  0.29418982  0.02399837    -0.76200
O801        O  0.00966157  0.33871962  0.06764678    -0.85700
O802        O  0.07628602  0.33740516  0.99706650    -0.85400
O803        O  0.03644279  0.38601941  0.08331670    -0.72200
O804        O  0.09440434  0.38356395  0.01766501    -0.84300
Zr805      Zr  0.96626468  0.38873852  0.95365765     2.26400
Zr806      Zr  0.96292389  0.37182544  0.07697204     2.06300
Zr807      Zr  0.08624830  0.36811338  0.94365660     2.10000
Zr808      Zr  0.00273012  0.32382411  0.99406341     1.78800
O809        O  0.12748184  0.39509193  0.89651814    -0.93100
O810        O  0.95456802  0.30023950  0.04126159    -0.40900
O811        O  0.01186537  0.35519539  0.94155086    -0.77500
O812        O  0.95409963  0.35613499  0.00366658    -0.96200
O813        O  0.97358985  0.40395895  0.02681738    -0.89500
O814        O  0.04108634  0.40100006  0.95523022    -0.92400
C815        C  0.08441751  0.29348526  0.05244778     1.01400
C816        C  0.17901752  0.36874829  0.01316414     1.14300
C817        C  0.01844581  0.35520920  0.16534300     1.05100
O818        O  0.90120872  0.35774720  0.12206934    -0.94500
O819        O  0.88744319  0.37630275  0.05249488    -0.90300
O820        O  0.88910074  0.38747342  0.97866740    -0.83400
C821        C  0.86852584  0.38193696  0.01528653     1.11700
O822        O  0.11625372  0.43615233  0.01107484    -0.96500
Zr823      Zr  0.04810136  0.41634850  0.02906160     1.88900
O824        O  0.97694998  0.42947731  0.92891454    -0.73100
O825        O  0.95471371  0.40372440  0.12816543    -0.52400
O826        O  0.08789966  0.43109194  0.09353568    -0.97100
O827        O  0.00148142  0.44399825  0.06799212    -0.54300
O828        O  0.02854397  0.44534405  0.97339736    -0.73700
C829        C  0.00211074  0.44629919  0.93977712     0.98700
O830        O  0.90194745  0.39664425  0.90617241    -0.62500
O831        O  0.12271321  0.33650846  0.90547035    -0.57300
O832        O  0.97747788  0.37561596  0.87867347    -0.94000
O833        O  0.05029200  0.36759201  0.86846109    -0.92400
O834        O  0.02382611  0.30162091  0.92851396    -0.92700
O835        O  0.94163339  0.30878983  0.95088707    -0.91500
C836        C  0.01033356  0.37025200  0.85398870     1.17500
H837        H  0.09821517  0.32579599  0.99098730     0.33500
H838        H  0.92503534  0.34995842  0.99963033     0.44300
H839        H  0.04930110  0.41128859  0.93084934     0.37800
H840        H  0.04053248  0.39282485  0.11238703     0.34300
H841        H  0.97294332  0.29529122  0.06732953     0.26100
H842        H  0.92332212  0.40831048  0.12546735     0.32100
H843        H  0.11037798  0.41918609  0.10073647     0.38000
H844        H  0.02544352  0.28555596  0.93968766     0.32400
H845        H  0.13632805  0.34359219  0.87823239     0.31300
H846        H  0.13344483  0.38691330  0.86811839     0.33000
H847        H  0.97586597  0.44683433  0.04791933     0.31900
H848        H  0.93381988  0.32132326  0.92930122     0.35900
H849        H  0.91196331  0.40761241  0.88253212     0.28700
H850        H  0.13020806  0.33419600  0.14799119     0.32900
H851        H  0.13980475  0.42537874  0.02101560     0.35800
H852        H  0.14803251  0.33220403  0.92497859     0.28400
H853        H  0.89591791  0.38236684  0.88984978     0.41200
H854        H  0.89909948  0.34132551  0.11472273     0.31300
H855        H  0.93297013  0.31116065  0.05409460     0.38900
H856        H  0.01815540  0.45848215  0.06640203     0.30800
H857        H  0.95702301  0.39669372  0.15876977     0.30800
H858        H  0.14339198  0.36010302  0.14408974     0.31100
Zr859      Zr  0.58452114  0.35806973  0.08663740     2.17500
O860        O  0.64661458  0.35707128  0.13885570    -0.51300
O861        O  0.59753059  0.31664476  0.08815116    -0.74500
O862        O  0.56163100  0.36167248  0.16657812    -0.81300
O863        O  0.65783978  0.37303891  0.98287502    -0.83000
O864        O  0.49120908  0.35217029  0.15866538    -0.78600
O865        O  0.65937118  0.36577019  0.05872406    -0.90300
O866        O  0.54967015  0.30043737  0.03980112    -0.76200
O867        O  0.51056821  0.34394784  0.08542508    -0.85700
O868        O  0.57353146  0.34459421  0.01139291    -0.85400
O869        O  0.53694296  0.39036705  0.10379302    -0.72200
O870        O  0.59473900  0.38972411  0.03487496    -0.84300
Zr871      Zr  0.46270919  0.39628660  0.97679153     2.26400
Zr872      Zr  0.46278043  0.37641750  0.09881043     2.06300
Zr873      Zr  0.58113358  0.37646613  0.95990708     2.10000
Zr874      Zr  0.50021895  0.33063598  0.01115428     1.78800
O875        O  0.61511120  0.40780753  0.91729522    -0.93100
O876        O  0.44844127  0.31009227  0.05989399    -0.40900
O877        O  0.50741568  0.36294938  0.96018471    -0.77500
O878        O  0.45193184  0.36249469  0.02436699    -0.96200
O879        O  0.47357361  0.40930383  0.05146489    -0.89500
O880        O  0.53701691  0.40935752  0.97670695    -0.92400
C881        C  0.58243774  0.29928889  0.06725977     1.01400
C882        C  0.67835113  0.37009191  0.02048122     1.14300
C883        C  0.52304784  0.35831959  0.18339830     1.05100
O884        O  0.40608742  0.36313251  0.15132983    -0.94500
O885        O  0.38595314  0.37952789  0.07418466    -0.90300
O886        O  0.38665793  0.39294292  0.00182117    -0.83400
C887        C  0.36639916  0.38574009  0.03735109     1.11700
O888        O  0.61220251  0.43116839  0.09768047    -0.96500
Zr889      Zr  0.54848048  0.42148641  0.05242288     1.88900
O890        O  0.47031147  0.43863054  0.96784200    -0.73100
O891        O  0.45422325  0.40919900  0.14769875    -0.52400
O892        O  0.53994747  0.44780130  0.11473362    -0.97100
O893        O  0.59066981  0.44697260  0.00299387    -0.54300
O894        O  0.49056323  0.44830396  0.03733829    -0.73700
C895        C  0.47955747  0.45385095  0.99731167     0.98700
O896        O  0.39832477  0.40574032  0.93046904    -0.62500
O897        O  0.61617406  0.34910294  0.90979046    -0.57300
O898        O  0.47311281  0.38705575  0.89822915    -0.94000
O899        O  0.54346491  0.37494037  0.88668490    -0.92400
O900        O  0.51683348  0.30384583  0.95135315    -0.92700
O901        O  0.44118225  0.31821816  0.96182501    -0.91500
C902        C  0.50408811  0.37960536  0.87287694     1.17500
H903        H  0.59489541  0.33294607  0.00369320     0.33500
H904        H  0.42328360  0.35588556  0.02025719     0.44300
H905        H  0.54207632  0.42128531  0.95437810     0.37800
H906        H  0.54207394  0.39663506  0.13316344     0.34300
H907        H  0.44030010  0.29637830  0.04276133     0.26100
H908        H  0.42238496  0.40969695  0.15512540     0.32100
H909        H  0.51477648  0.44179343  0.13253949     0.38000
H910        H  0.54818184  0.30661675  0.94382694     0.32400
H911        H  0.64231692  0.35713320  0.89748221     0.31300
H912        H  0.64728179  0.40526990  0.92032295     0.33000
H913        H  0.62151931  0.44143396  0.00563415     0.31900
H914        H  0.42512382  0.33242026  0.95292272     0.35900
H915        H  0.40816489  0.41766461  0.90860455     0.28700
H916        H  0.64013265  0.34472378  0.16119994     0.32900
H917        H  0.61523137  0.41820472  0.11950664     0.35800
H918        H  0.62825902  0.33687793  0.92988048     0.28400
H919        H  0.39226360  0.39214402  0.91204741     0.41200
H920        H  0.40671957  0.34623783  0.14934082     0.31300
H921        H  0.46643799  0.30401170  0.08533566     0.38900
H922        H  0.59026352  0.46184584  0.01848132     0.30800
H923        H  0.46863959  0.40444203  0.17635552     0.30800
H924        H  0.64437204  0.37145359  0.15593854     0.31100
Zr925      Zr  0.52248186  0.60927831  0.97423137     2.17500
O926        O  0.58547702  0.59942556  0.02206463    -0.51300
O927        O  0.51442974  0.56699523  0.98469846    -0.74500
O928        O  0.50746907  0.61860613  0.05372178    -0.81300
O929        O  0.60111347  0.62539243  0.87587803    -0.83000
O930        O  0.43714286  0.63169145  0.06139375    -0.78600
O931        O  0.59899056  0.61483535  0.95019400    -0.90300
O932        O  0.48497325  0.55324525  0.92061105    -0.76200
O933        O  0.44878328  0.59600237  0.96911456    -0.85700
O934        O  0.51470634  0.59616535  0.89867313    -0.85400
O935        O  0.47904542  0.64367733  0.98642637    -0.72200
O936        O  0.53647587  0.64130710  0.92367391    -0.84300
Zr937      Zr  0.40326485  0.64739812  0.85984931     2.26400
Zr938      Zr  0.40525138  0.62933869  0.98499011     2.06300
Zr939      Zr  0.52557139  0.62832006  0.84922953     2.10000
Zr940      Zr  0.44057987  0.58384572  0.89265853     1.78800
O941        O  0.56869834  0.65783835  0.81114725    -0.93100
O942        O  0.38812838  0.55859365  0.93080949    -0.40900
O943        O  0.45116611  0.61557598  0.84254225    -0.77500
O944        O  0.39389441  0.61483632  0.91035834    -0.96200
O945        O  0.41666042  0.66116246  0.93395770    -0.89500
O946        O  0.47769140  0.66067035  0.86042373    -0.92400
C947        C  0.50245817  0.55039950  0.95924982     1.01400
C948        C  0.61981920  0.62071995  0.91389588     1.14300
C949        C  0.47588733  0.62719609  0.07749199     1.05100
O950        O  0.38131836  0.59576396  0.02788518    -0.94500
O951        O  0.32818378  0.63194301  0.96162042    -0.90300
O952        O  0.32721239  0.63902184  0.88570926    -0.83400
C953        C  0.30781128  0.63398065  0.92360889     1.11700
O954        O  0.55595216  0.68427269  0.97739340    -0.96500
Zr955      Zr  0.49092550  0.67419702  0.93398956     1.88900
O956        O  0.38974529  0.68892993  0.86612035    -0.73100
O957        O  0.35566238  0.65584735  0.02285537    -0.52400
O958        O  0.47290072  0.69953695  0.99603115    -0.97100
O959        O  0.54134010  0.69625859  0.88614060    -0.54300
O960        O  0.44263296  0.70456575  0.90965461    -0.73700
C961        C  0.40733895  0.70590950  0.88636065     0.98700
O962        O  0.34354851  0.65388590  0.80586269    -0.62500
O963        O  0.55513199  0.59775074  0.80281708    -0.57300
O964        O  0.42549435  0.64355982  0.77916100    -0.94000
O965        O  0.49850909  0.63424454  0.77436128    -0.92400
O966        O  0.46271299  0.56057628  0.82891402    -0.92700
O967        O  0.38111322  0.57510287  0.84073805    -0.91500
C968        C  0.46115745  0.63909844  0.75675132     1.17500
H969        H  0.53584490  0.58418026  0.89233601     0.33500
H970        H  0.36638147  0.60693442  0.90780992     0.44300
H971        H  0.48183603  0.67229059  0.83721040     0.37800
H972        H  0.48652677  0.65190941  0.01310091     0.34300
H973        H  0.40072890  0.55561322  0.96119953     0.26100
H974        H  0.35540429  0.65080840  0.05497544     0.32100
H975        H  0.48612597  0.71442711  0.98736003     0.38000
H976        H  0.45215090  0.54498927  0.83661654     0.32400
H977        H  0.57678938  0.58947345  0.82218023     0.31300
H978        H  0.58740640  0.64944781  0.78941486     0.33000
H979        H  0.54861180  0.70988246  0.90395058     0.31900
H980        H  0.37219521  0.59010757  0.82739680     0.35900
H981        H  0.35359952  0.66621687  0.78495956     0.28700
H982        H  0.57545814  0.58661357  0.04175111     0.32900
H983        H  0.55013122  0.67867444  0.00861480     0.35800
H984        H  0.53041296  0.58696153  0.79969847     0.28400
H985        H  0.34226254  0.63995725  0.78737248     0.41200
H986        H  0.37081951  0.60172801  0.05714478     0.31300
H987        H  0.36172255  0.56821514  0.93643344     0.38900
H988        H  0.52323890  0.70249368  0.86095920     0.30800
H989        H  0.37143156  0.67059612  0.02231698     0.30800
H990        H  0.58938746  0.61243470  0.04260792     0.31100
Zr991      Zr  0.90686058  0.64264541  0.97813486     2.17500
O992        O  0.84618326  0.65260177  0.02865719    -0.51300
O993        O  0.89996937  0.68444596  0.97300181    -0.74500
O994        O  0.92898010  0.63912231  0.05894326    -0.81300
O995        O  0.82949904  0.62647314  0.87954483    -0.83000
O996        O  0.00269498  0.63111859  0.06209761    -0.78600
O997        O  0.83107250  0.63339729  0.95512652    -0.90300
O998        O  0.95061714  0.69895576  0.92419085    -0.76200
O999        O  0.98148393  0.65483961  0.97156191    -0.85700
O1000       O  0.91649156  0.65443803  0.90077459    -0.85400
O1001       O  0.95200799  0.60972652  0.99721464    -0.72200
O1002       O  0.89224907  0.61049908  0.93149651    -0.84300
Zr1003     Zr  0.02279267  0.59880189  0.86908280     2.26400
Zr1004     Zr  0.02708825  0.62177188  0.98742023     2.06300
Zr1005     Zr  0.90498994  0.62176179  0.85431908     2.10000
Zr1006     Zr  0.99095671  0.66624267  0.89480195     1.78800
O1007       O  0.86599781  0.59133926  0.81654194    -0.93100
O1008       O  0.04910300  0.68655442  0.93367791    -0.40900
O1009       O  0.97990199  0.63276360  0.85063349    -0.77500
O1010       O  0.03673080  0.63350852  0.91048880    -0.96200
O1011       O  0.01198043  0.58793761  0.94596375    -0.89500
O1012       O  0.94717216  0.58812668  0.87387512    -0.92400
C1013       C  0.91791870  0.70123758  0.95136278     1.01400
C1014       C  0.81066358  0.62942157  0.91789093     1.14300
C1015       C  0.96536637  0.63521035  0.08058956     1.05100
O1016       O  0.07472313  0.65125184  0.01697822    -0.94500
O1017       O  0.10291905  0.61592442  0.96287287    -0.90300
O1018       O  0.10025393  0.60410417  0.89019319    -0.83400
C1019       C  0.12128583  0.61062376  0.92528598     1.11700
O1020       O  0.88312012  0.57026450  0.01237579    -0.96500
Zr1021     Zr  0.93577396  0.57800604  0.95171819     1.88900
O1022       O  0.01903322  0.55575570  0.87047012    -0.73100
O1023       O  0.05674077  0.59123065  0.03598512    -0.52400
O1024       O  0.96765064  0.55357154  0.01103449    -0.97100
O1025       O  0.86945321  0.55915604  0.92569179    -0.54300
O1026       O  0.96354676  0.54461609  0.91720514    -0.73700
C1027       C  0.99448855  0.54022718  0.88951386     0.98700
O1028       O  0.07454077  0.58401472  0.81311397    -0.62500
O1029       O  0.86994716  0.64983831  0.80379048    -0.57300
O1030       O  0.01104564  0.61013027  0.79053939    -0.94000
O1031       O  0.94084550  0.62286792  0.77996208    -0.92400
O1032       O  0.96595419  0.68816887  0.82879533    -0.92700
O1033       O  0.04703722  0.67895998  0.84116588    -0.91500
C1034       C  0.98003446  0.61838480  0.76553234     1.17500
H1035       H  0.89616104  0.66659155  0.89243430     0.33500
H1036       H  0.06538143  0.63984836  0.90447675     0.44300
H1037       H  0.94051940  0.57577471  0.85383860     0.37800
H1038       H  0.94683783  0.60367722  0.02723179     0.34300
H1039       H  0.04871383  0.70214478  0.91998459     0.26100
H1040       H  0.08345200  0.59779701  0.04962678     0.32100
H1041       H  0.97220967  0.56375896  0.03691803     0.38000
H1042       H  0.93793378  0.69558707  0.83795553     0.32400
H1043       H  0.84264463  0.64245012  0.79339913     0.31300
H1044       H  0.85821775  0.59796705  0.78654331     0.33000
H1045       H  0.87549537  0.54256972  0.92976311     0.31900
H1046       H  0.04596229  0.66770534  0.81658934     0.35900
H1047       H  0.09437142  0.59684909  0.80507613     0.28700
H1048       H  0.85624760  0.66614722  0.04523633     0.32900
H1049       H  0.88089188  0.55338723  0.01474349     0.35800
H1050       H  0.85958222  0.66237182  0.82327705     0.28400
H1051       H  0.09348118  0.57276963  0.82953985     0.41200
H1052       H  0.09044660  0.64372930  0.04257818     0.31300
H1053       H  0.03786140  0.68871851  0.96476315     0.38900
H1054       H  0.86918014  0.56176113  0.89256001     0.30800
H1055       H  0.03560275  0.58972805  0.06140273     0.30800
H1056       H  0.84484531  0.64011653  0.05169819     0.31100
C1057       C  0.66875485  0.62307532  0.91621471    -0.05300
C1058       C  0.69512291  0.60628178  0.93864051    -0.02400
C1059       C  0.74144767  0.60868304  0.94026664     0.02600
C1060       C  0.76192287  0.62758440  0.91879505    -0.05300
C1061       C  0.73588496  0.64392870  0.89522880    -0.02400
C1062       C  0.68955559  0.64220643  0.89541669     0.02600
C1063       C  0.67502325  0.58597502  0.95838635     0.37300
C1064       C  0.75678952  0.66239523  0.86989290     0.37200
C1065       C  0.66359418  0.66085007  0.87585174     0.35700
C1066       C  0.76827720  0.59090698  0.96157485     0.35700
N1067       N  0.64367846  0.67609190  0.86058358    -0.39200
N1068       N  0.78943608  0.57654726  0.97832844    -0.39200
N1069       N  0.77321392  0.67699811  0.84914560    -0.38600
N1070       N  0.65919088  0.56970431  0.97404992    -0.38600
C1071       C  0.25982689  0.62768825  0.92298537    -0.05300
C1072       C  0.24368772  0.60979643  0.95184783    -0.02400
C1073       C  0.19874425  0.60375199  0.95147594     0.02600
C1074       C  0.16943252  0.61467384  0.92124273    -0.05300
C1075       C  0.18549066  0.63160294  0.89075035    -0.02400
C1076       C  0.23012906  0.63837866  0.89213082     0.02600
C1077       C  0.27286999  0.59670020  0.98135434     0.37300
C1078       C  0.15575448  0.64280701  0.85885893     0.37200
C1079       C  0.24456603  0.65713616  0.86302489     0.35700
C1080       C  0.18258203  0.58590640  0.98195023     0.35700
N1081       N  0.25557968  0.67221022  0.83983216    -0.39200
N1082       N  0.16971077  0.57170835  0.00624976    -0.39200
N1083       N  0.13256482  0.65181028  0.83300470    -0.38600
N1084       N  0.29472082  0.58568764  0.00538397    -0.38600
C1085       C  0.48268017  0.47879175  0.98541374    -0.05300
C1086       C  0.46640227  0.49529008  0.01605569    -0.02400
C1087       C  0.47783727  0.51864608  0.01108140     0.02600
C1088       C  0.50454454  0.52600921  0.97463094    -0.05300
C1089       C  0.52182535  0.50952018  0.94479594    -0.02400
C1090       C  0.51059626  0.48616172  0.94971402     0.02600
C1091       C  0.43642529  0.48834454  0.05196137     0.37300
C1092       C  0.55210053  0.51671285  0.90929783     0.37200
C1093       C  0.52889689  0.46975564  0.91844630     0.35700
C1094       C  0.46128401  0.53526765  0.04291365     0.35700
N1095       N  0.54364914  0.45690740  0.89309829    -0.39200
N1096       N  0.44868686  0.54863703  0.06839155    -0.39200
N1097       N  0.57658394  0.52247645  0.88134224    -0.38600
N1098       N  0.41227523  0.48282761  0.08041060    -0.38600
C1099       C  0.81969441  0.38026713  0.01444073    -0.05300
C1100       C  0.79911532  0.36546782  0.98392791    -0.02400
C1101       C  0.75313307  0.36195938  0.98612430     0.02600
C1102       C  0.72726528  0.37282061  0.01956862    -0.05300
C1103       C  0.74821117  0.38728846  0.05064548    -0.02400
C1104       C  0.79400212  0.39122728  0.04762547     0.02600
C1105       C  0.82555032  0.35276032  0.95179957     0.37300
C1106       C  0.72285055  0.39851360  0.08557149     0.37200
C1107       C  0.81465786  0.40702206  0.07817802     0.35700
C1108       C  0.73310599  0.34620246  0.95512610     0.35700
N1109       N  0.83114984  0.41970152  0.10233255    -0.39200
N1110       N  0.71803886  0.33347280  0.93012663    -0.39200
N1111       N  0.70326126  0.40744180  0.11395055    -0.38600
N1112       N  0.84646192  0.34246271  0.92633213    -0.38600
C1113       C  0.31779870  0.38227961  0.03350660    -0.05300
C1114       C  0.29114754  0.39806258  0.00862180    -0.02400
C1115       C  0.24620256  0.39338927  0.00069075     0.02600
C1116       C  0.22709293  0.37305765  0.01805618    -0.05300
C1117       C  0.25375072  0.35715036  0.04230796    -0.02400
C1118       C  0.29873093  0.36165035  0.04987068     0.02600
C1119       C  0.30969889  0.41929307  0.99116914     0.37300
C1120       C  0.23559975  0.33534812  0.05722712     0.37200
C1121       C  0.32574817  0.34411060  0.07187689     0.35700
C1122       C  0.21982058  0.40970329  0.97468629     0.35700
N1123       N  0.34688394  0.32988331  0.08913843    -0.39200
N1124       N  0.19953931  0.42285310  0.95345379    -0.39200
N1125       N  0.22157240  0.31784920  0.06889877    -0.38600
N1126       N  0.32434108  0.43618011  0.97692060    -0.38600
C1127       C  0.00246993  0.46829257  0.91218558    -0.05300
C1128       C  0.96321670  0.47824785  0.89504685    -0.02400
C1129       C  0.96302258  0.50117782  0.87859734     0.02600
C1130       C  0.00102147  0.51504910  0.88237601    -0.05300
C1131       C  0.04141364  0.50423130  0.89328741    -0.02400
C1132       C  0.04234448  0.48077241  0.90658345     0.02600
C1133       C  0.92218494  0.46575954  0.89772300     0.37300
C1134       C  0.08151325  0.51752024  0.89427903     0.37200
C1135       C  0.08457341  0.46962683  0.91482629     0.35700
C1136       C  0.92276467  0.51101356  0.85998492     0.35700
N1137       N  0.11849439  0.46086881  0.92076216    -0.39200
N1138       N  0.89063408  0.51867350  0.84480122    -0.39200
N1139       N  0.11369633  0.52798642  0.89525077    -0.38600
N1140       N  0.88938101  0.45584755  0.90019315    -0.38600
C1141       C  0.51864379  0.65251920  0.20816627    -0.05300
C1142       C  0.48881891  0.66542116  0.18108087    -0.02400
C1143       C  0.47362493  0.65694261  0.13939458     0.02600
C1144       C  0.48763848  0.63511611  0.12410795    -0.05300
C1145       C  0.51854530  0.62256944  0.15077082    -0.02400
C1146       C  0.53527261  0.63162854  0.19128583     0.02600
C1147       C  0.47483189  0.68796284  0.19555881     0.37300
C1148       C  0.53139987  0.59957992  0.13808006     0.37200
C1149       C  0.56941329  0.61908764  0.21563418     0.35700
C1150       C  0.44422379  0.67122233  0.11224980     0.35700
N1151       N  0.59728073  0.60908583  0.23417007    -0.39200
N1152       N  0.42077012  0.68301912  0.09142972    -0.39200
N1153       N  0.54126435  0.58111679  0.12848182    -0.38600
N1154       N  0.46391694  0.70601172  0.20684401    -0.38600
C1155       C  0.46117344  0.63865501  0.70669318    -0.05300
C1156       C  0.45033777  0.61821918  0.68487482    -0.02400
C1157       C  0.46382553  0.61461720  0.63974837     0.02600
C1158       C  0.48907299  0.63131019  0.61607950    -0.05300
C1159       C  0.49891426  0.65204430  0.63785067    -0.02400
C1160       C  0.48435905  0.65578269  0.68256127     0.02600
C1161       C  0.42766669  0.60023875  0.70989600     0.37300
C1162       C  0.52466342  0.66956202  0.61501215     0.37200
C1163       C  0.49436620  0.67711088  0.70456949     0.35700
C1164       C  0.45420238  0.59295211  0.61892723     0.35700
N1165       N  0.50209690  0.69413741  0.72212680    -0.39200
N1166       N  0.44660768  0.57558846  0.60261776    -0.39200
N1167       N  0.54572158  0.68371278  0.59796275    -0.38600
N1168       N  0.40975034  0.58582091  0.72978543    -0.38600
C1169       C  0.72551881  0.63820025  0.42071902    -0.05300
C1170       C  0.75346560  0.65324321  0.44373440    -0.02400
C1171       C  0.79935360  0.64867352  0.44683629     0.02600
C1172       C  0.81783254  0.62841599  0.42849008    -0.05300
C1173       C  0.78948060  0.61329234  0.40586846    -0.02400
C1174       C  0.74389991  0.61826009  0.40175083     0.02600
C1175       C  0.73500182  0.67348726  0.46454714     0.37300
C1176       C  0.80641210  0.59190070  0.38845649     0.37200
C1177       C  0.71565398  0.60199840  0.37987032     0.35700
C1178       C  0.82748515  0.66536340  0.46780333     0.35700
N1179       N  0.69417513  0.58856052  0.36236360    -0.39200
N1180       N  0.84971085  0.67879989  0.48443431    -0.39200
N1181       N  0.81920087  0.57472338  0.37442362    -0.38600
N1182       N  0.72063989  0.68961323  0.48153921    -0.38600
C1183       C  0.22487431  0.63412834  0.40830190    -0.05300
C1184       C  0.24392304  0.61355444  0.39216197    -0.02400
C1185       C  0.29010879  0.61096898  0.38945032     0.02600
C1186       C  0.31764503  0.62887745  0.40252341    -0.05300
C1187       C  0.29877586  0.64952919  0.41814344    -0.02400
C1188       C  0.25253483  0.65209131  0.42134652     0.02600
C1189       C  0.21625609  0.59464928  0.37927350     0.37300
C1190       C  0.32683058  0.66830987  0.43070798     0.37200
C1191       C  0.23345755  0.67346454  0.43675169     0.35700
C1192       C  0.30936561  0.58986937  0.37301530     0.35700
N1193       N  0.21826736  0.69051041  0.44900924    -0.39200
N1194       N  0.32459081  0.57302218  0.35984742    -0.39200
N1195       N  0.34859296  0.68354398  0.44074589    -0.38600
N1196       N  0.19476112  0.57940761  0.36872450    -0.38600
C1197       C  0.96565016  0.63308078  0.13051114    -0.05300
C1198       C  0.98864620  0.64932328  0.15551272    -0.02400
C1199       C  0.00195280  0.64423358  0.20027885     0.02600
C1200       C  0.99274033  0.62257915  0.22056383    -0.05300
C1201       C  0.96739812  0.60679260  0.19614579    -0.02400
C1202       C  0.95400308  0.61203635  0.15138082     0.02600
C1203       C  0.99894442  0.67132997  0.13466703     0.37300
C1204       C  0.95633079  0.58472694  0.21625073     0.37200
C1205       C  0.92968232  0.59527648  0.12622011     0.35700
C1206       C  0.02389164  0.66183209  0.22539286     0.35700
N1207       N  0.91009295  0.58171983  0.10681911    -0.39200
N1208       N  0.04113146  0.67640541  0.24421676    -0.39200
N1209       N  0.94728533  0.56709619  0.23197844    -0.38600
N1210       N  0.00690856  0.68889404  0.11801580    -0.38600
C1211       C  0.02287578  0.63794943  0.63067443    -0.05300
C1212       C  0.99739328  0.65321229  0.65662432    -0.02400
C1213       C  0.98134179  0.64644996  0.69958239     0.02600
C1214       C  0.99216271  0.62456287  0.71801058    -0.05300
C1215       C  0.01924732  0.60964783  0.69264528    -0.02400
C1216       C  0.03487132  0.61641857  0.64949945     0.02600
C1217       C  0.98799695  0.67610649  0.63900077     0.37300
C1218       C  0.02890532  0.58666033  0.70955129     0.37200
C1219       C  0.06192683  0.60069688  0.62395186     0.35700
C1220       C  0.95338900  0.66220308  0.72412284     0.35700
N1221       N  0.08390682  0.58796705  0.60442267    -0.39200
N1222       N  0.93059001  0.67507007  0.74235733    -0.39200
N1223       N  0.03649846  0.56824631  0.72256842    -0.38600
N1224       N  0.98082433  0.69439932  0.62507234    -0.38600
C1225       C  0.97709260  0.37536138  0.29940678    -0.05300
C1226       C  0.96214306  0.35464908  0.28093842    -0.02400
C1227       C  0.97675385  0.34774703  0.23785808     0.02600
C1228       C  0.00746498  0.36108457  0.21300001    -0.05300
C1229       C  0.02267309  0.38170727  0.23165228    -0.02400
C1230       C  0.00680669  0.38902000  0.27395806     0.02600
C1231       C  0.93426063  0.33931600  0.30709292     0.37300
C1232       C  0.05454908  0.39574429  0.20759079     0.37200
C1233       C  0.02118261  0.41082014  0.29127100     0.35700
C1234       C  0.96172553  0.32614644  0.22018187     0.35700
N1235       N  0.03276998  0.42820035  0.30485773    -0.39200
N1236       N  0.94975295  0.30891625  0.20622471    -0.39200
N1237       N  0.08042080  0.40706750  0.18933917    -0.38600
N1238       N  0.91248829  0.32636670  0.32676433    -0.38600
C1239       C  0.96729169  0.36013946  0.71732118    -0.05300
C1240       C  0.99045167  0.34245446  0.74072273    -0.02400
C1241       C  0.00538013  0.34571876  0.78529615     0.02600
C1242       C  0.99926350  0.36708089  0.80584909    -0.05300
C1243       C  0.97629873  0.38480096  0.78232634    -0.02400
C1244       C  0.96002293  0.38124643  0.73855620     0.02600
C1245       C  0.00125552  0.32136303  0.71801471     0.37300
C1246       C  0.97133005  0.40723053  0.80221891     0.37200
C1247       C  0.93936552  0.40012360  0.71375443     0.35700
C1248       C  0.02662999  0.32705544  0.81007632     0.35700
N1249       N  0.92337316  0.41533065  0.69408392    -0.39200
N1250       N  0.04350514  0.31211767  0.82979913    -0.39200
N1251       N  0.96753140  0.42520598  0.81761243    -0.38600
N1252       N  0.01074745  0.30460109  0.70005386    -0.38600
C1253       C  0.98567419  0.47267094  0.41121028    -0.05300
C1254       C  0.94575489  0.48569345  0.40826941    -0.02400
C1255       C  0.94618808  0.50938001  0.39658581     0.02600
C1256       C  0.98589609  0.52012720  0.38428225    -0.05300
C1257       C  0.02357710  0.50590083  0.37740550    -0.02400
C1258       C  0.02396855  0.48254350  0.39198586     0.02600
C1259       C  0.90373824  0.47475998  0.41652888     0.37300
C1260       C  0.06251155  0.51554230  0.35614846     0.37200
C1261       C  0.06442017  0.46924327  0.38914218     0.35700
C1262       C  0.90627139  0.52297397  0.40046888     0.35700
N1263       N  0.09678078  0.45867546  0.38672752    -0.39200
N1264       N  0.87435811  0.53380459  0.40377436    -0.39200
N1265       N  0.09351632  0.52292512  0.33848795    -0.38600
N1266       N  0.86976753  0.46629839  0.42203873    -0.38600
C1267       C  0.66305122  0.37942144  0.51449202    -0.05300
C1268       C  0.68358680  0.35869424  0.52890252    -0.02400
C1269       C  0.72974877  0.35597402  0.52600616     0.02600
C1270       C  0.75595134  0.37378459  0.50801001    -0.05300
C1271       C  0.73539569  0.39441499  0.49288070    -0.02400
C1272       C  0.68914009  0.39713275  0.49577739     0.02600
C1273       C  0.65727846  0.33964945  0.54519920     0.37300
C1274       C  0.76177681  0.41345106  0.47657063     0.37200
C1275       C  0.66862604  0.41853257  0.48097257     0.35700
C1276       C  0.75020820  0.33457814  0.54089444     0.35700
N1277       N  0.65225450  0.43557128  0.46910500    -0.39200
N1278       N  0.76653659  0.31756426  0.55293860    -0.39200
N1279       N  0.78215885  0.42890478  0.46369309    -0.38600
N1280       N  0.63702449  0.32415968  0.55807070    -0.38600
C1281       C  0.25710440  0.36293676  0.52323703    -0.05300
C1282       C  0.23065291  0.35049287  0.49328201    -0.02400
C1283       C  0.18541988  0.35605356  0.48805842     0.02600
C1284       C  0.16638834  0.37421183  0.51248820    -0.05300
C1285       C  0.19254108  0.38610712  0.54357919    -0.02400
C1286       C  0.23756585  0.38049134  0.54896174     0.02600
C1287       C  0.24965108  0.33138792  0.46918584     0.37300
C1288       C  0.17321901  0.40442532  0.56980568     0.37200
C1289       C  0.26405042  0.39337303  0.58013715     0.35700
C1290       C  0.15796011  0.34242281  0.45914004     0.35700
N1291       N  0.28495990  0.40363717  0.60518653    -0.39200
N1292       N  0.13588363  0.33151418  0.43629204    -0.39200
N1293       N  0.15801873  0.41903459  0.59083044    -0.38600
N1294       N  0.26464089  0.31598884  0.45027516    -0.38600
C1295       C  0.47702674  0.37675339  0.31693885    -0.05300
C1296       C  0.46834679  0.35479346  0.29956176    -0.02400
C1297       C  0.48490007  0.34847233  0.25678242     0.02600
C1298       C  0.51259288  0.36335496  0.23167643    -0.05300
C1299       C  0.52334495  0.38476451  0.25013021    -0.02400
C1300       C  0.50379749  0.39186120  0.29110315     0.02600
C1301       C  0.44477447  0.33786663  0.32639334     0.37300
C1302       C  0.55468634  0.39967714  0.22745128     0.37200
C1303       C  0.51033201  0.41511627  0.30593019     0.35700
C1304       C  0.47497968  0.32602221  0.23940790     0.35700
N1305       N  0.51533863  0.43376782  0.31718302    -0.39200
N1306       N  0.46712350  0.30813499  0.22553198    -0.39200
N1307       N  0.58032132  0.41165252  0.21052523    -0.38600
N1308       N  0.42661677  0.32377278  0.34691519    -0.38600
C1309       C  0.46499455  0.36707180  0.73530625    -0.05300
C1310       C  0.45515152  0.38823308  0.75532538    -0.02400
C1311       C  0.46916693  0.39256403  0.79973611     0.02600
C1312       C  0.49205875  0.37545723  0.82506376    -0.05300
C1313       C  0.49936770  0.35376234  0.80588514    -0.02400
C1314       C  0.48640493  0.34972021  0.76098008     0.02600
C1315       C  0.43163361  0.40587932  0.72979636     0.37300
C1316       C  0.51925616  0.33535170  0.83249775     0.37200
C1317       C  0.49553271  0.32772974  0.74083066     0.35700
C1318       C  0.46172871  0.41506467  0.81850122     0.35700
N1319       N  0.50272491  0.31014974  0.72488000    -0.39200
N1320       N  0.45590617  0.43304905  0.83325732    -0.39200
N1321       N  0.53493068  0.32048087  0.85341427    -0.38600
N1322       N  0.41246749  0.42008529  0.71019990    -0.38600
C1323       C  0.49465981  0.48092556  0.47197878    -0.05300
C1324       C  0.50796020  0.49664249  0.50517707    -0.02400
C1325       C  0.50398449  0.52064060  0.49737979     0.02600
C1326       C  0.48727150  0.52941355  0.45591883    -0.05300
C1327       C  0.47524750  0.51365801  0.42226211    -0.02400
C1328       C  0.47793807  0.48968553  0.43061780     0.02600
C1329       C  0.52624062  0.48800781  0.54751093     0.37300
C1330       C  0.45974763  0.52214139  0.37871573     0.37200
C1331       C  0.46094794  0.47405875  0.39757526     0.35700
C1332       C  0.51886108  0.53630240  0.53144701     0.35700
N1333       N  0.44678058  0.46164564  0.37142491    -0.39200
N1334       N  0.53087524  0.54874346  0.55867569    -0.39200
N1335       N  0.44763236  0.52884303  0.34382414    -0.38600
N1336       N  0.54094148  0.48104179  0.58115364    -0.38600
C1337       C  0.64919417  0.23292037  0.08072890    -0.05300
C1338       C  0.67374019  0.25337674  0.07822414    -0.02400
C1339       C  0.65213544  0.27490397  0.07358292     0.02600
C1340       C  0.60539354  0.27651215  0.07389507    -0.05300
C1341       C  0.58087662  0.25608699  0.07851708    -0.02400
C1342       C  0.60246166  0.23449389  0.08074984     0.02600
C1343       C  0.72142223  0.25246884  0.08181560     0.37300
C1344       C  0.53318844  0.25715508  0.08212936     0.37200
C1345       C  0.57608073  0.21386352  0.08127877     0.35700
C1346       C  0.67848432  0.29526052  0.06633316     0.35700
N1347       N  0.55485024  0.19750015  0.08149645    -0.39200
N1348       N  0.69981673  0.31135361  0.06023733    -0.39200
N1349       N  0.49516664  0.25778839  0.08535585    -0.38600
N1350       N  0.75943094  0.25195065  0.08507327    -0.38600
C1351       C  0.02628782  0.13275999  0.08908816    -0.05300
C1352       C  0.00207673  0.13631759  0.12914874    -0.02400
C1353       C  0.95715046  0.13050520  0.13162091     0.02600
C1354       C  0.93406412  0.12371903  0.09226642    -0.05300
C1355       C  0.95840310  0.12114869  0.05147726    -0.02400
C1356       C  0.00437769  0.12445459  0.05071453     0.02600
C1357       C  0.02307360  0.14636855  0.16803562     0.37300
C1358       C  0.93714000  0.11563583  0.00925221     0.37200
C1359       C  0.02912802  0.11790758  0.01077791     0.35700
C1360       C  0.93583024  0.13079632  0.17564457     0.35700
N1361       N  0.04804136  0.11221194  0.97882243    -0.39200
N1362       N  0.91938659  0.13095050  0.21098879    -0.39200
N1363       N  0.92183291  0.11149982  0.97462162    -0.38600
N1364       N  0.03926355  0.15454376  0.19911968    -0.38600
C1365       C  0.43260075  0.12181710  0.07030759    -0.05300
C1366       C  0.45511978  0.12381268  0.11193380    -0.02400
C1367       C  0.50120687  0.12740378  0.11266602     0.02600
C1368       C  0.52519959  0.13049333  0.07176067    -0.05300
C1369       C  0.50206327  0.12914950  0.03017439    -0.02400
C1370       C  0.45693644  0.12373629  0.02956750     0.02600
C1371       C  0.43111573  0.12279358  0.15443959     0.37300
C1372       C  0.52364652  0.13402413  0.98720073     0.37200
C1373       C  0.43603105  0.11945668  0.98640295     0.35700
C1374       C  0.52354913  0.12719215  0.15596202     0.35700
N1375       N  0.41950802  0.11599209  0.95202902    -0.39200
N1376       N  0.54068036  0.12680784  0.19085648    -0.39200
N1377       N  0.53980108  0.13786290  0.95243241    -0.38600
N1378       N  0.41255374  0.12208834  0.18866546    -0.38600
C1379       C  0.10932361  0.27122389  0.05753689    -0.05300
C1380       C  0.11281683  0.25943405  0.09959060    -0.02400
C1381       C  0.13559384  0.23805634  0.10293437     0.02600
C1382       C  0.15455419  0.22798725  0.06408177    -0.05300
C1383       C  0.15091194  0.23988754  0.02209439    -0.02400
C1384       C  0.12927201  0.26143139  0.01905730     0.02600
C1385       C  0.09095943  0.26869879  0.13895199     0.37300
C1386       C  0.16955294  0.23001049  0.98157131     0.37200
C1387       C  0.12846240  0.27381851  0.97608007     0.35700
C1388       C  0.13725770  0.22579742  0.14595587     0.35700
N1389       N  0.12810414  0.28367960  0.94180064    -0.39200
N1390       N  0.13849155  0.21593755  0.18022712    -0.39200
N1391       N  0.18399548  0.22211986  0.94907854    -0.38600
N1392       N  0.07318457  0.27598730  0.17029331    -0.38600
C1393       C  0.85967435  0.76956166  0.95623150    -0.05300
C1394       C  0.90581497  0.76644736  0.96087683    -0.02400
C1395       C  0.92469697  0.74415936  0.96137050     0.02600
C1396       C  0.89790512  0.72468883  0.95594459    -0.05300
C1397       C  0.85162012  0.72784338  0.95268844    -0.02400
C1398       C  0.83268917  0.75004335  0.95321383     0.02600
C1399       C  0.93374787  0.78611328  0.96776699     0.37300
C1400       C  0.82303304  0.70824614  0.94850111     0.37200
C1401       C  0.78515320  0.75271136  0.95025622     0.35700
C1402       C  0.97130844  0.74121985  0.97086890     0.35700
N1403       N  0.74721760  0.75473979  0.94828720    -0.39200
N1404       N  0.00834819  0.73899029  0.97931189    -0.39200
N1405       N  0.80012059  0.69261993  0.94581533    -0.38600
N1406       N  0.95594369  0.80180014  0.97344710    -0.38600
C1407       C  0.75706586  0.97607058  0.03369796    -0.05300
C1408       C  0.79224656  0.98536818  0.05859403    -0.02400
C1409       C  0.79400907  0.00915217  0.06640641     0.02600
C1410       C  0.76045678  0.02379753  0.04968572    -0.05300
C1411       C  0.72515429  0.01449394  0.02504121    -0.02400
C1412       C  0.72368093  0.99077861  0.01675224     0.02600
C1413       C  0.82656169  0.97036065  0.07652256     0.37300
C1414       C  0.69040612  0.02944397  0.00774740     0.37200
C1415       C  0.68852450  0.98160335  0.98957609     0.35700
C1416       C  0.82996152  0.01854308  0.09214353     0.35700
N1417       N  0.66051015  0.97430860  0.96780604    -0.39200
N1418       N  0.85865119  0.02608735  0.11262286    -0.39200
N1419       N  0.66264523  0.04135295  0.99401767    -0.38600
N1420       N  0.85384823  0.95841616  0.09111748    -0.38600
C1421       C  0.49176833  0.86551787  0.98149637    -0.05300
C1422       C  0.51997881  0.85673902  0.01578508    -0.02400
C1423       C  0.56542192  0.86181993  0.01511614     0.02600
C1424       C  0.58346557  0.87536118  0.97969537    -0.05300
C1425       C  0.55561346  0.88372634  0.94486300    -0.02400
C1426       C  0.50997074  0.87921735  0.94614424     0.02600
C1427       C  0.50273032  0.84173901  0.05110521     0.37300
C1428       C  0.57375206  0.89735863  0.90782002     0.37200
C1429       C  0.48181976  0.88983577  0.91203740     0.35700
C1430       C  0.59391079  0.85211728  0.04993799     0.35700
N1431       N  0.46017663  0.89870847  0.88462969    -0.39200
N1432       N  0.61632368  0.84426971  0.07785568    -0.39200
N1433       N  0.58796350  0.90810631  0.87801993    -0.38600
N1434       N  0.48945353  0.82965936  0.07933275    -0.38600
C1435       C  0.99126368  0.86360979  0.98807810    -0.05300
C1436       C  0.01761441  0.85600604  0.02492954    -0.02400
C1437       C  0.06307066  0.86111588  0.02616508     0.02600
C1438       C  0.08248986  0.87452097  0.99128654    -0.05300
C1439       C  0.05586260  0.88261696  0.95505265    -0.02400
C1440       C  0.01096574  0.87671184  0.95283632     0.02600
C1441       C  0.99839918  0.84230219  0.06117717     0.37300
C1442       C  0.07406940  0.89789876  0.92062111     0.37200
C1443       C  0.98498167  0.88494239  0.91463002     0.35700
C1444       C  0.09008264  0.85172195  0.06253693     0.35700
N1445       N  0.96485153  0.89148742  0.88377187    -0.39200
N1446       N  0.11161139  0.84415789  0.09148389    -0.39200
N1447       N  0.08795856  0.91024160  0.89315746    -0.38600
N1448       N  0.98347772  0.83137693  0.09033695    -0.38600
C1449       C  0.35004274  0.77267040  0.90946614    -0.05300
C1450       C  0.39215468  0.77042509  0.88831077    -0.02400
C1451       C  0.40887841  0.74863581  0.87655935     0.02600
C1452       C  0.38467213  0.72863975  0.88635427    -0.05300
C1453       C  0.34198846  0.73071666  0.90489575    -0.02400
C1454       C  0.32429287  0.75250448  0.91527313     0.02600
C1455       C  0.42011018  0.79012763  0.88038281     0.37300
C1456       C  0.31765676  0.71023641  0.91734311     0.37200
C1457       C  0.27946702  0.75366259  0.93241616     0.35700
C1458       C  0.45216199  0.74666238  0.85571740     0.35700
N1459       N  0.24368627  0.75412410  0.94609572    -0.39200
N1460       N  0.48667640  0.74512106  0.83920849    -0.39200
N1461       N  0.29849543  0.69395875  0.92796802    -0.38600
N1462       N  0.44294810  0.80560817  0.87384432    -0.38600
C1463       C  0.26046991  0.01565732  0.10073976    -0.05300
C1464       C  0.30140300  0.00426593  0.09607004    -0.02400
C1465       C  0.30284853  0.98045309  0.08726342     0.02600
C1466       C  0.26340310  0.96805594  0.07994347    -0.05300
C1467       C  0.22288294  0.97881521  0.09024442    -0.02400
C1468       C  0.22173344  0.00215083  0.10247406     0.02600
C1469       C  0.34197062  0.01712525  0.09782285     0.37300
C1470       C  0.18199800  0.96651699  0.08489155     0.37200
C1471       C  0.18036916  0.01237305  0.11674576     0.35700
C1472       C  0.34514932  0.96871948  0.08612752     0.35700
N1473       N  0.14745179  0.02031552  0.12897689    -0.39200
N1474       N  0.37916696  0.95958662  0.08634848    -0.39200
N1475       N  0.14944178  0.95667896  0.08018859    -0.38600
N1476       N  0.37447663  0.02730059  0.09921237    -0.38600
C1477       C  0.83849168  0.23287424  0.56235079    -0.05300
C1478       C  0.82710362  0.24784192  0.52605668    -0.02400
C1479       C  0.84619729  0.26982647  0.52230188     0.02600
C1480       C  0.87694757  0.27709462  0.55469546    -0.05300
C1481       C  0.88812631  0.26224966  0.59112145    -0.02400
C1482       C  0.86825851  0.24046918  0.59552944     0.02600
C1483       C  0.79420031  0.24100230  0.49369553     0.37300
C1484       C  0.92139540  0.26901650  0.62310425     0.37200
C1485       C  0.87885031  0.22577004  0.63410049     0.35700
C1486       C  0.83436109  0.28510780  0.48496903     0.35700
N1487       N  0.88694184  0.21415964  0.66514914    -0.39200
N1488       N  0.82518543  0.29753272  0.45548691    -0.39200
N1489       N  0.94826231  0.27423644  0.64847241    -0.38600
N1490       N  0.76749393  0.23561171  0.46827123    -0.38600
C1491       C  0.72421316  0.16342335  0.28049811    -0.05300
C1492       C  0.70109896  0.14732636  0.30716540    -0.02400
C1493       C  0.71037210  0.14473467  0.35369660     0.02600
C1494       C  0.73919449  0.16005436  0.37580698    -0.05300
C1495       C  0.75961034  0.17743712  0.34942751    -0.02400
C1496       C  0.75321138  0.17863514  0.30189600     0.02600
C1497       C  0.66971213  0.13219294  0.28612697     0.37300
C1498       C  0.78705061  0.19416993  0.37094960     0.37200
C1499       C  0.77647532  0.19556006  0.27474712     0.35700
C1500       C  0.69357106  0.12450403  0.37680303     0.35700
N1501       N  0.79499102  0.20901689  0.25287766    -0.39200
N1502       N  0.68022880  0.10770825  0.39274051    -0.39200
N1503       N  0.80887364  0.20764779  0.38796245    -0.38600
N1504       N  0.64442749  0.12026690  0.26955099    -0.38600
C1505       C  0.77345953  0.10735778  0.78369978    -0.05300
C1506       C  0.79191539  0.12480649  0.81010928    -0.02400
C1507       C  0.78322682  0.12568536  0.85706058     0.02600
C1508       C  0.75521997  0.10950316  0.87827627    -0.05300
C1509       C  0.73764148  0.09175182  0.85240254    -0.02400
C1510       C  0.74744981  0.09037781  0.80571557     0.02600
C1511       C  0.81839704  0.14263889  0.78924178     0.37300
C1512       C  0.71012144  0.07455843  0.87407279     0.37200
C1513       C  0.73198615  0.07089231  0.78077237     0.35700
C1514       C  0.80192074  0.14395639  0.88318643     0.35700
N1515       N  0.71993428  0.05519474  0.76116067    -0.39200
N1516       N  0.81714853  0.15861105  0.90353093    -0.39200
N1517       N  0.68809400  0.06087964  0.89136056    -0.38600
N1518       N  0.83967100  0.15717457  0.77388828    -0.38600
C1519       C  0.56469450  0.12246056  0.60020306    -0.05300
C1520       C  0.53771422  0.10385109  0.59013088    -0.02400
C1521       C  0.49154832  0.10674543  0.58874107     0.02600
C1522       C  0.47201909  0.12846454  0.59687831    -0.05300
C1523       C  0.49913820  0.14667178  0.61028660    -0.02400
C1524       C  0.54535953  0.14364804  0.61183623     0.02600
C1525       C  0.55766313  0.08199345  0.57907675     0.37300
C1526       C  0.48003802  0.16881254  0.62063639     0.37200
C1527       C  0.57328430  0.16245761  0.62483871     0.35700
C1528       C  0.46435980  0.08712180  0.57937930     0.35700
N1529       N  0.59559381  0.17739187  0.63539872    -0.39200
N1530       N  0.44336103  0.07118478  0.57213418    -0.39200
N1531       N  0.46534243  0.18656421  0.62918940    -0.38600
N1532       N  0.57364679  0.06460360  0.57010232    -0.38600
C1533       C  0.06382674  0.12815292  0.55329654    -0.05300
C1534       C  0.04287040  0.14991005  0.55173664    -0.02400
C1535       C  0.99647900  0.15171628  0.55321756     0.02600
C1536       C  0.97060837  0.13179253  0.55457259    -0.05300
C1537       C  0.99153634  0.11003682  0.55438341    -0.02400
C1538       C  0.03794995  0.10821697  0.55367563     0.02600
C1539       C  0.06914108  0.17052246  0.54886080     0.37300
C1540       C  0.96555358  0.08935956  0.55665003     0.37200
C1541       C  0.05896870  0.08579642  0.55619254     0.35700
C1542       C  0.97552111  0.17402495  0.55723956     0.35700
N1543       N  0.07567271  0.06791828  0.55828271    -0.39200
N1544       N  0.95871990  0.19174721  0.56112639    -0.39200
N1545       N  0.94581445  0.07253782  0.55878769    -0.38600
N1546       N  0.09019515  0.18691698  0.54637482    -0.38600
C1547       C  0.35376588  0.22918993  0.58358865    -0.05300
C1548       C  0.39450262  0.23163168  0.56114147    -0.02400
C1549       C  0.41466529  0.25334627  0.55695929     0.02600
C1550       C  0.39325170  0.27335384  0.57363646    -0.05300
C1551       C  0.35225418  0.27051000  0.59676584    -0.02400
C1552       C  0.33320867  0.24856348  0.60213098     0.02600
C1553       C  0.41491152  0.21171331  0.54081002     0.37300
C1554       C  0.32770140  0.29009335  0.61315544     0.37200
C1555       C  0.29150082  0.24593465  0.62577372     0.35700
C1556       C  0.45759797  0.25466173  0.53533888     0.35700
N1557       N  0.25829237  0.24382134  0.64469244    -0.39200
N1558       N  0.49177386  0.25541653  0.51788274    -0.39200
N1559       N  0.30748121  0.30551026  0.62623006    -0.38600
N1560       N  0.43067034  0.19575746  0.52444020    -0.38600
C1561       C  0.27469354  0.10014324  0.37283733    -0.05300
C1562       C  0.29520334  0.11569600  0.34222114    -0.02400
C1563       C  0.28547543  0.11525985  0.29538526     0.02600
C1564       C  0.25411688  0.09982301  0.27835069    -0.05300
C1565       C  0.23422918  0.08406488  0.30851643    -0.02400
C1566       C  0.24556518  0.08367945  0.35499886     0.02600
C1567       C  0.32441534  0.13319388  0.35851163     0.37300
C1568       C  0.20168662  0.06833744  0.29181702     0.37200
C1569       C  0.22770647  0.06588552  0.38435838     0.35700
C1570       C  0.30605034  0.13176836  0.26491769     0.35700
N1571       N  0.21367461  0.05150871  0.40750391    -0.39200
N1572       N  0.32243282  0.14497123  0.24072830    -0.39200
N1573       N  0.17532578  0.05594455  0.27864622    -0.38600
N1574       N  0.34774601  0.14750105  0.37000347    -0.38600
C1575       C  0.24573466  0.15436151  0.77820759    -0.05300
C1576       C  0.22112855  0.13674287  0.79980564    -0.02400
C1577       C  0.21101785  0.13759443  0.84634645     0.02600
C1578       C  0.22729212  0.15543644  0.87288296    -0.05300
C1579       C  0.25235180  0.17297521  0.85158502    -0.02400
C1580       C  0.26120053  0.17255495  0.80444482     0.02600
C1581       C  0.20862567  0.11668151  0.77481983     0.37300
C1582       C  0.26880812  0.19156445  0.87840986     0.37200
C1583       C  0.28595102  0.19088574  0.78304904     0.35700
C1584       C  0.18566433  0.11926594  0.86711085     0.35700
N1585       N  0.30579979  0.20554997  0.76611263    -0.39200
N1586       N  0.16515306  0.10453555  0.88283721    -0.39200
N1587       N  0.28178504  0.20625777  0.90027169    -0.38600
N1588       N  0.19905082  0.10042755  0.75555184    -0.38600
C1589       C  0.64506077  0.78029827  0.41927441    -0.05300
C1590       C  0.60051951  0.77724727  0.43160985    -0.02400
C1591       C  0.57700259  0.75771878  0.41811847     0.02600
C1592       C  0.59909588  0.73892321  0.39758666    -0.05300
C1593       C  0.64447808  0.74188439  0.38598402    -0.02400
C1594       C  0.66683797  0.76251754  0.39612038     0.02600
C1595       C  0.58002394  0.79308715  0.46267717     0.37300
C1596       C  0.66924366  0.72372862  0.36449683     0.37200
C1597       C  0.71280653  0.76517205  0.38365078     0.35700
C1598       C  0.52956880  0.75765228  0.42476061     0.35700
N1599       N  0.74954724  0.76706754  0.37372489    -0.39200
N1600       N  0.49171583  0.75798019  0.42983535    -0.39200
N1601       N  0.68957321  0.70943135  0.34737097    -0.38600
N1602       N  0.56425698  0.80526654  0.48868054    -0.38600
C1603       C  0.76418333  0.88093467  0.18686935    -0.05300
C1604       C  0.77769604  0.86085115  0.21085088    -0.02400
C1605       C  0.76227091  0.85652022  0.25510696     0.02600
C1606       C  0.73138462  0.87142909  0.27516354    -0.05300
C1607       C  0.71673098  0.89106767  0.25107007    -0.02400
C1608       C  0.73398057  0.89616986  0.20772409     0.02600
C1609       C  0.80621716  0.84395519  0.19024146     0.37300
C1610       C  0.68574310  0.90675296  0.27195558     0.37200
C1611       C  0.72224667  0.91777239  0.18568160     0.35700
C1612       C  0.77946416  0.83701743  0.28099303     0.35700
N1613       N  0.71313922  0.93512497  0.16848986    -0.39200
N1614       N  0.79345283  0.82169479  0.30194408    -0.39200
N1615       N  0.66090785  0.91927376  0.28836537    -0.38600
N1616       N  0.82855028  0.82983019  0.17528807    -0.38600
C1617       C  0.74634548  0.86619181  0.69043942    -0.05300
C1618       C  0.73725588  0.84455739  0.71016672    -0.02400
C1619       C  0.75242705  0.83903635  0.75419985     0.02600
C1620       C  0.77783433  0.85484567  0.77851334    -0.05300
C1621       C  0.78817236  0.87615194  0.75808678    -0.02400
C1622       C  0.77184575  0.88198322  0.71480061     0.02600
C1623       C  0.71332509  0.82768613  0.68489036     0.37300
C1624       C  0.81349422  0.89278787  0.78255132     0.37200
C1625       C  0.77981230  0.90479453  0.69624928     0.35700
C1626       C  0.74182526  0.81698082  0.77456643     0.35700
N1627       N  0.78615339  0.92302030  0.68179945    -0.39200
N1628       N  0.73318109  0.79938501  0.79069142    -0.39200
N1629       N  0.83373576  0.90619001  0.80163857    -0.38600
N1630       N  0.69436682  0.81407981  0.66495890    -0.38600
C1631       C  0.74293770  0.97382010  0.58305903    -0.05300
C1632       C  0.78275001  0.98523972  0.59170271    -0.02400
C1633       C  0.78197997  0.00851196  0.60449917     0.02600
C1634       C  0.74163257  0.02093552  0.60710690    -0.05300
C1635       C  0.70208948  0.00856873  0.60615623    -0.02400
C1636       C  0.70269594  0.98510306  0.59451970     0.02600
C1637       C  0.82459543  0.97362938  0.58518029     0.37300
C1638       C  0.66080331  0.02004441  0.61620279     0.37200
C1639       C  0.66165980  0.97258113  0.59436722     0.35700
C1640       C  0.82291524  0.01982438  0.61509124     0.35700
N1641       N  0.62881396  0.96266385  0.59481270    -0.39200
N1642       N  0.85561298  0.02858287  0.62446306    -0.39200
N1643       N  0.62781875  0.02901908  0.62506044    -0.38600
N1644       N  0.85819341  0.96446609  0.58029646    -0.38600
C1645       C  0.01701666  0.87313188  0.48584860    -0.05300
C1646       C  0.98767812  0.85624984  0.47130805    -0.02400
C1647       C  0.94195373  0.86086324  0.47009261     0.02600
C1648       C  0.92512410  0.88244580  0.48346428    -0.05300
C1649       C  0.95437019  0.89912340  0.49887967    -0.02400
C1650       C  0.00006488  0.89446259  0.50040114     0.02600
C1651       C  0.00431047  0.83365501  0.46014166     0.37300
C1652       C  0.93772604  0.92140865  0.51175226     0.37200
C1653       C  0.02948075  0.91186774  0.51673944     0.35700
C1654       C  0.91221741  0.84290843  0.45677569     0.35700
N1655       N  0.05233351  0.92586798  0.53039260    -0.39200
N1656       N  0.88902341  0.82834593  0.44625597    -0.39200
N1657       N  0.92493800  0.93931750  0.52181811    -0.38600
N1658       N  0.01763604  0.81560626  0.45167452    -0.38600
C1659       C  0.51741554  0.87595901  0.48168181    -0.05300
C1660       C  0.49252881  0.86185736  0.45319116    -0.02400
C1661       C  0.44632298  0.86446285  0.45028323     0.02600
C1662       C  0.42420102  0.88242431  0.47314486    -0.05300
C1663       C  0.44957620  0.89738370  0.49959556    -0.02400
C1664       C  0.49551021  0.89373553  0.50495662     0.02600
C1665       C  0.51409258  0.84432933  0.42663093     0.37300
C1666       C  0.42913842  0.91729340  0.51979907     0.37200
C1667       C  0.52020755  0.90901039  0.53327295     0.35700
C1668       C  0.42191496  0.84769545  0.42504983     0.35700
N1669       N  0.53909261  0.92134147  0.55626160    -0.39200
N1670       N  0.40312856  0.83406810  0.40499758    -0.39200
N1671       N  0.41345946  0.93341089  0.53561495    -0.38600
N1672       N  0.53063339  0.83057711  0.40444275    -0.38600
C1673       C  0.14633167  0.76964395  0.45872581    -0.05300
C1674       C  0.12334369  0.76059355  0.49667997    -0.02400
C1675       C  0.10107138  0.73936911  0.49417945     0.02600
C1676       C  0.10171347  0.72674114  0.45380994    -0.05300
C1677       C  0.12557208  0.73563347  0.41619848    -0.02400
C1678       C  0.14779610  0.75685235  0.41875184     0.02600
C1679       C  0.12192552  0.77334310  0.53826006     0.37300
C1680       C  0.12846163  0.72263118  0.37505733     0.37200
C1681       C  0.17385085  0.76518130  0.38079744     0.35700
C1682       C  0.07602784  0.73094725  0.53275345     0.35700
N1683       N  0.19510277  0.77189421  0.35091065    -0.39200
N1684       N  0.05584184  0.72430708  0.56347405    -0.39200
N1685       N  0.13097677  0.71233841  0.34211170    -0.38600
N1686       N  0.12085979  0.78344392  0.57152079    -0.38600
C1687       C  0.27156428  0.86579938  0.19655747    -0.05300
C1688       C  0.28216114  0.84425868  0.21651459    -0.02400
C1689       C  0.26596890  0.83827998  0.26014700     0.02600
C1690       C  0.23616664  0.85296009  0.28296237    -0.05300
C1691       C  0.22363736  0.87388324  0.26160392    -0.02400
C1692       C  0.24334248  0.88081874  0.22034522     0.02600
C1693       C  0.30758107  0.82761040  0.19144846     0.37300
C1694       C  0.19039535  0.88857615  0.28156504     0.37200
C1695       C  0.23530231  0.90386761  0.20277392     0.35700
C1696       C  0.27876494  0.81650658  0.28078965     0.35700
N1697       N  0.22935423  0.92231375  0.18904772    -0.39200
N1698       N  0.28918946  0.79912053  0.29702864    -0.39200
N1699       N  0.16331561  0.90044076  0.29612536    -0.38600
N1700       N  0.32733458  0.81395780  0.17183916    -0.38600
C1701       C  0.24833051  0.87321869  0.68623726    -0.05300
C1702       C  0.23908529  0.85204513  0.70817893    -0.02400
C1703       C  0.25275496  0.84789165  0.75319258     0.02600
C1704       C  0.27621816  0.86468012  0.77657851    -0.05300
C1705       C  0.28639703  0.88557022  0.75459968    -0.02400
C1706       C  0.27229812  0.88993330  0.70980859     0.02600
C1707       C  0.21582505  0.83428751  0.68475857     0.37300
C1708       C  0.30921894  0.90312110  0.77923228     0.37200
C1709       C  0.28025059  0.91223576  0.68913458     0.35700
C1710       C  0.24197059  0.82641903  0.77594726     0.35700
N1711       N  0.28647907  0.93011902  0.67301237    -0.39200
N1712       N  0.23335277  0.80929440  0.79402906    -0.39200
N1713       N  0.32736026  0.91700450  0.79920847    -0.38600
N1714       N  0.19719830  0.81979064  0.66709563    -0.38600
C1715       C  0.23958331  0.02421162  0.54112297    -0.05300
C1716       C  0.26706270  0.01658214  0.50559564    -0.02400
C1717       C  0.27317417  0.99287765  0.49840194     0.02600
C1718       C  0.25238162  0.97657986  0.52688420    -0.05300
C1719       C  0.22611062  0.98414961  0.56320772    -0.02400
C1720       C  0.21953463  0.00780926  0.57014547     0.02600
C1721       C  0.29036818  0.03304592  0.47733993     0.37300
C1722       C  0.20498028  0.96748892  0.59290081     0.37200
C1723       C  0.19126793  0.01529742  0.60673728     0.35700
C1724       C  0.30161009  0.98510613  0.46218265     0.35700
N1725       N  0.16853365  0.02120658  0.63583616    -0.39200
N1726       N  0.32454311  0.97878250  0.43359239    -0.39200
N1727       N  0.18838783  0.95413193  0.61662132    -0.38600
N1728       N  0.30918778  0.04602991  0.45463116    -0.38600
loop_ 
_geom_bond_atom_site_label_1 
_geom_bond_atom_site_label_2 
_geom_bond_distance 
_geom_bond_site_symmetry_2 
_ccdc_geom_bond_type 
Zr1           O2   2.440       .  S
Zr1           O3   2.463       .  S
Zr1           O4   2.487       .  S
Zr1           O7   2.469       .  S
Zr1           O9   2.389       .  S
Zr1          O10   2.397       .  S
Zr1          O11   2.425       .  S
Zr1          O12   2.402       .  S
O2           H58   0.990       .  S
O2           H66   0.991       .  S
O3           C23   1.289       .  A
O4           C25   1.289       .  A
O5          Zr15   2.417       .  S
O5           C24   1.282       .  A
O6          Zr14   2.401       .  S
O6           C25   1.271       .  A
O7           C24   1.293       .  A
O8          Zr16   2.447       .  S
O8           C23   1.286       .  A
O9          Zr14   2.414       .  S
O9          Zr16   2.371       .  S
O10         Zr15   2.396       .  S
O10         Zr16   2.376       .  S
O10          H45   0.965       .  S
O11         Zr14   2.396       .  S
O11         Zr31   2.380       .  S
O11          H48   0.962       .  S
O12         Zr15   2.394       .  S
O12         Zr31   2.374       .  S
Zr13         O38   2.441       .  S
Zr13         O32   2.484       .  S
Zr13         O40   2.428       .  S
Zr13         O28   2.456       .  S
Zr13         O19   2.410       .  S
Zr13         O20   2.427       .  S
Zr13         O21   2.381       .  S
Zr13         O22   2.389       .  S
Zr14         O33   2.436       .  S
Zr14         O26   2.438       .  S
Zr14         O27   2.430       .  S
Zr14         O20   2.394       .  S
Zr14         O21   2.388       .  S
Zr15         O17   2.435       .  S
Zr15         O39   2.439       .  S
Zr15         O41   2.460       .  S
Zr15         O19   2.369       .  S
Zr15         O22   2.389       .  S
Zr16         O42   2.434       .  S
Zr16         O43   2.438       .  S
Zr16         O18   2.438       .  S
Zr16         O19   2.394       .  S
Zr16         O20   2.407       .  S
O17          H54   0.990       .  S
O18          H49   0.990       .  S
O18          H63   0.990       .  S
O20          H46   0.964       .  S
O21         Zr31   2.389       .  S
O22         Zr31   2.396       .  S
O22          H47   0.965       .  S
C23        C1673   1.502       .  S
C24        C1645   1.485       .  S
C25        C1690   1.498       .  S
O26          H62   0.989       .  S
O27          C29   1.284       .  A
O28          C29   1.287       .  A
C29        C1662   1.504       .  S
O30         Zr31   2.438       .  S
O30          H59   0.990       .  S
Zr31         O34   2.436       .  S
Zr31         O35   2.436       .  S
Zr31         O36   2.388       .  S
O32          C37   1.291       .  A
O33          H50   0.990       .  S
O33          H65   0.990       .  S
O34          H51   0.990       .  S
O35          H55   0.990       .  S
O35          H64   0.990       .  S
O36          C37   1.274       .  A
C37        C1718   1.485       .  S
O38          H57   0.990       .  S
O38          H61   0.989       .  S
O39          H53   0.990       .  S
O39          H60   0.989       .  S
O40          C44   1.283       .  A
O41          C44   1.290       .  A
O42          H52   0.990       .  S
O43          H56   0.991       .  S
C44        C1701   1.493       .  S
Zr67         O68   2.440       .  S
Zr67         O69   2.455       .  S
Zr67         O70   2.477       .  S
Zr67         O73   2.442       .  S
Zr67         O75   2.380       .  S
Zr67         O76   2.397       .  S
Zr67         O77   2.409       .  S
Zr67         O78   2.399       .  S
O68         H124   0.990       .  S
O68         H132   0.991       .  S
O69          C89   1.287       .  A
O70          C91   1.290       .  A
O71         Zr81   2.449       .  S
O71          C90   1.289       .  A
O72         Zr80   2.362       .  S
O72          C91   1.271       .  A
O73          C90   1.288       .  A
O74         Zr82   2.463       .  S
O74          C89   1.287       .  A
O75         Zr80   2.405       .  S
O75         Zr82   2.374       .  S
O76         Zr81   2.399       .  S
O76         Zr82   2.370       .  S
O76         H111   0.965       .  S
O77         Zr80   2.390       .  S
O77         Zr97   2.392       .  S
O77         H114   0.965       .  S
O78         Zr81   2.396       .  S
O78         Zr97   2.378       .  S
Zr79        O104   2.444       .  S
Zr79         O98   2.512       .  S
Zr79        O106   2.392       .  S
Zr79         O94   2.473       .  S
Zr79         O85   2.428       .  S
Zr79         O86   2.425       .  S
Zr79         O87   2.369       .  S
Zr79         O88   2.386       .  S
Zr80         O99   2.435       .  S
Zr80         O92   2.434       .  S
Zr80         O93   2.405       .  S
Zr80         O86   2.382       .  S
Zr80         O87   2.386       .  S
Zr81         O83   2.435       .  S
Zr81        O105   2.439       .  S
Zr81        O107   2.474       .  S
Zr81         O85   2.379       .  S
Zr81         O88   2.388       .  S
Zr82        O108   2.436       .  S
Zr82        O109   2.435       .  S
Zr82         O84   2.438       .  S
Zr82         O85   2.409       .  S
Zr82         O86   2.407       .  S
O83         H120   0.990       .  S
O84         H115   0.990       .  S
O84         H129   0.990       .  S
O86         H112   0.963       .  S
O87         Zr97   2.389       .  S
O88         Zr97   2.393       .  S
O88         H113   0.965       .  S
C89        C1589   1.507       .  S
C90        C1659   1.497       .  S
C91        C1606   1.472       .  S
O92         H128   0.990       .  S
O93          C95   1.277       .  A
O94          C95   1.288       .  A
C95        C1648   1.485       .  S
O96         Zr97   2.437       .  S
O96         H125   0.991       .  S
Zr97        O100   2.434       .  S
Zr97        O101   2.432       .  S
Zr97        O102   2.401       .  S
O98         C103   1.298       .  A
O99         H116   0.990       .  S
O99         H131   0.990       .  S
O100        H117   0.990       .  S
O101        H121   0.990       .  S
O101        H130   0.989       .  S
O102        C103   1.278       .  A
C103       C1631   1.510       .  S
O104        H123   0.991       .  S
O104        H127   0.990       .  S
O105        H119   0.990       .  S
O105        H126   0.990       .  S
O106        C110   1.276       .  A
O107        C110   1.292       .  A
O108        H118   0.990       .  S
O109        H122   0.990       .  S
C110       C1617   1.488       .  S
Zr133       O134   2.441       .  S
Zr133       O135   2.489       .  S
Zr133       O136   2.434       .  S
Zr133       O139   2.450       .  S
Zr133       O141   2.369       .  S
Zr133       O142   2.385       .  S
Zr133       O143   2.426       .  S
Zr133       O144   2.418       .  S
O134        H190   0.990       .  S
O134        H198   0.991       .  S
O135        C155   1.293       .  A
O136        C157   1.284       .  A
O137       Zr147   2.406       .  S
O137        C156   1.279       .  A
O138       Zr146   2.495       .  S
O138        C157   1.296       .  A
O139        C156   1.287       .  A
O140       Zr148   2.393       .  S
O140        C155   1.275       .  A
O141       Zr146   2.385       .  S
O141       Zr148   2.387       .  S
O142       Zr147   2.404       .  S
O142       Zr148   2.378       .  S
O142        H177   0.966       .  S
O143       Zr146   2.396       .  S
O143       Zr163   2.386       .  S
O143        H180   0.963       .  S
O144       Zr147   2.379       .  S
O144       Zr163   2.397       .  S
Zr145       O170   2.441       .  S
Zr145       O164   2.455       .  S
Zr145       O172   2.497       .  S
Zr145       O160   2.466       .  S
Zr145       O151   2.400       .  S
Zr145       O152   2.423       .  S
Zr145       O153   2.399       .  S
Zr145       O154   2.391       .  S
Zr146       O165   2.434       .  S
Zr146       O158   2.432       .  S
Zr146       O159   2.428       .  S
Zr146       O152   2.424       .  S
Zr146       O153   2.409       .  S
Zr147       O149   2.436       .  S
Zr147       O171   2.439       .  S
Zr147       O173   2.407       .  S
Zr147       O151   2.386       .  S
Zr147       O154   2.397       .  S
Zr148       O174   2.436       .  S
Zr148       O175   2.436       .  S
Zr148       O150   2.437       .  S
Zr148       O151   2.378       .  S
Zr148       O152   2.385       .  S
O149        H186   0.990       .  S
O150        H181   0.990       .  S
O150        H195   0.990       .  S
O152        H178   0.964       .  S
O153       Zr163   2.378       .  S
O154       Zr163   2.378       .  S
O154        H179   0.966       .  S
C155       C1715   1.491       .  S
C156       C1533   1.484       .  S
C157       C1561   1.509       .  S
O158        H194   0.990       .  S
O159        C161   1.285       .  A
O160        C161   1.290       .  A
C161       C1522   1.491       .  S
O162       Zr163   2.436       .  S
O162        H191   0.990       .  S
Zr163       O166   2.438       .  S
Zr163       O167   2.441       .  S
Zr163       O168   2.422       .  S
O164        C169   1.286       .  A
O165        H182   0.990       .  S
O165        H197   0.989       .  S
O166        H183   0.990       .  S
O167        H187   0.990       .  S
O167        H196   0.989       .  S
O168        C169   1.280       .  A
C169       C1547   1.489       .  S
O170        H189   0.990       .  S
O170        H193   0.990       .  S
O171        H185   0.990       .  S
O171        H192   0.990       .  S
O172        C176   1.297       .  A
O173        C176   1.281       .  A
O174        H184   0.990       .  S
O175        H188   0.990       .  S
C176       C1575   1.499       .  S
Zr199       O200   2.439       .  S
Zr199       O201   2.458       .  S
Zr199       O202   2.518       .  S
Zr199       O205   2.471       .  S
Zr199       O207   2.385       .  S
Zr199       O208   2.404       .  S
Zr199       O209   2.409       .  S
Zr199       O210   2.408       .  S
O200        H256   0.990       .  S
O200        H264   0.990       .  S
O201        C221   1.288       .  A
O202        C223   1.301       .  A
O203       Zr213   2.404       .  S
O203        C222   1.280       .  A
O204       Zr212   2.408       .  S
O204        C223   1.281       .  A
O205        C222   1.292       .  A
O206       Zr214   2.436       .  S
O206        C221   1.283       .  A
O207       Zr212   2.390       .  S
O207       Zr214   2.381       .  S
O208       Zr213   2.401       .  S
O208       Zr214   2.369       .  S
O208        H243   0.966       .  S
O209       Zr212   2.401       .  S
O209       Zr229   2.370       .  S
O209        H246   0.964       .  S
O210       Zr213   2.405       .  S
O210       Zr229   2.379       .  S
Zr211       O236   2.443       .  S
Zr211       O230   2.518       .  S
Zr211       O238   2.433       .  S
Zr211       O226   2.465       .  S
Zr211       O217   2.421       .  S
Zr211       O218   2.432       .  S
Zr211       O219   2.382       .  S
Zr211       O220   2.382       .  S
Zr212       O231   2.434       .  S
Zr212       O224   2.435       .  S
Zr212       O225   2.403       .  S
Zr212       O218   2.386       .  S
Zr212       O219   2.410       .  S
Zr213       O215   2.436       .  S
Zr213       O237   2.436       .  S
Zr213       O239   2.471       .  S
Zr213       O217   2.370       .  S
Zr213       O220   2.383       .  S
Zr214       O240   2.433       .  S
Zr214       O241   2.437       .  S
Zr214       O216   2.438       .  S
Zr214       O217   2.397       .  S
Zr214       O218   2.404       .  S
O215        H252   0.990       .  S
O216        H247   0.990       .  S
O216        H261   0.990       .  S
O218        H244   0.964       .  S
O219       Zr229   2.387       .  S
O220       Zr229   2.386       .  S
O220        H245   0.965       .  S
C221       C1477   1.497       .  S
C222       C1536   1.483       .  S
C223       C1494   1.509       .  S
O224        H260   0.990       .  S
O225        C227   1.276       .  A
O226        C227   1.287       .  A
C227       C1519   1.476       .  S
O228       Zr229   2.437       .  S
O228        H257   0.991       .  S
Zr229       O232   2.434       .  S
Zr229       O233   2.428       .  S
Zr229       O234   2.387       .  S
O230        C235   1.298       .  A
O231        H248   0.990       .  S
O231        H263   0.990       .  S
O232        H249   0.990       .  S
O233        H253   0.990       .  S
O233        H262   0.989       .  S
O234        C235   1.275       .  A
C235       C1634   1.504       .  S
O236        H255   0.991       .  S
O236        H259   0.990       .  S
O237        H251   0.989       .  S
O237        H258   0.990       .  S
O238        C242   1.284       .  A
O239        C242   1.292       .  A
O240        H250   0.990       .  S
O241        H254   0.990       .  S
C242       C1505   1.503       .  S
Zr265       O266   2.441       .  S
Zr265       O267   2.503       .  S
Zr265       O268   2.414       .  S
Zr265       O271   2.466       .  S
Zr265       O273   2.373       .  S
Zr265       O274   2.376   1_554  S
Zr265       O275   2.435       .  S
Zr265       O276   2.411   1_554  S
O266        H322   0.989       .  S
O266        H330   0.990       .  S
O267        C287   1.296       .  A
O268        C289   1.281       .  A
O269       Zr279   2.391       .  S
O269        C288   1.277       .  A
O270       Zr278   2.492       .  S
O270        C289   1.296       .  A
O271        C288   1.290   1_554  A
O272       Zr280   2.399   1_554  S
O272        C287   1.276       .  A
O273       Zr278   2.393       .  S
O273       Zr280   2.386   1_554  S
O274       Zr279   2.397       .  S
O274       Zr280   2.381       .  S
O274        H309   0.966       .  S
O275       Zr278   2.396       .  S
O275       Zr295   2.382       .  S
O275        H312   0.963       .  S
O276       Zr279   2.376       .  S
O276       Zr295   2.405   1_556  S
Zr277       O302   2.440       .  S
Zr277       O296   2.445       .  S
Zr277       O304   2.479       .  S
Zr277       O292   2.459       .  S
Zr277       O283   2.399       .  S
Zr277       O284   2.414       .  S
Zr277       O285   2.397       .  S
Zr277       O286   2.376       .  S
Zr278       O297   2.432       .  S
Zr278       O290   2.435       .  S
Zr278       O291   2.439       .  S
Zr278       O284   2.419   1_554  S
Zr278       O285   2.409   1_554  S
Zr279       O281   2.437       .  S
Zr279       O303   2.434       .  S
Zr279       O305   2.377       .  S
Zr279       O283   2.392       .  S
Zr279       O286   2.389       .  S
Zr280       O306   2.436       .  S
Zr280       O307   2.434       .  S
Zr280       O282   2.437       .  S
Zr280       O283   2.392       .  S
Zr280       O284   2.372       .  S
O281        H318   0.990       .  S
O282        H313   0.990       .  S
O282        H327   0.990   1_556  S
O284        H310   0.963       .  S
O285       Zr295   2.375   1_556  S
O286       Zr295   2.365   1_556  S
O286        H311   0.966       .  S
C287       C1466   1.508       .  S
C288       C1438   1.491       .  S
C289       C1687   1.496       .  S
O290        H326   0.990       .  S
O291        C293   1.288   1_554  A
O292        C293   1.291       .  A
C293       C1421   1.494       .  S
O294       Zr295   2.435       .  S
O294        H323   0.990       .  S
Zr295       O298   2.437       .  S
Zr295       O299   2.436   1_554  S
Zr295       O300   2.437   1_554  S
O296        C301   1.285       .  A
O297        H314   0.990       .  S
O297        H329   0.988       .  S
O298        H315   0.990       .  S
O299        H319   0.990       .  S
O299        H328   0.990       .  S
O300        C301   1.284       .  A
C301       C1449   1.518       .  S
O302        H321   0.990       .  S
O302        H325   0.990       .  S
O303        H317   0.990       .  S
O303        H324   0.990       .  S
O304        C308   1.291       .  A
O305        C308   1.273       .  A
O306        H316   0.990       .  S
O307        H320   0.990       .  S
C308       C1704   1.477       .  S
Zr331       O332   2.442       .  S
Zr331       O333   2.486       .  S
Zr331       O334   2.422       .  S
Zr331       O337   2.449       .  S
Zr331       O339   2.379       .  S
Zr331       O340   2.383   1_554  S
Zr331       O341   2.431       .  S
Zr331       O342   2.407   1_554  S
O332        H388   0.989       .  S
O332        H396   0.991       .  S
O333        C353   1.292       .  A
O334        C355   1.282       .  A
O335       Zr345   2.417       .  S
O335        C354   1.280       .  A
O336       Zr344   2.468       .  S
O336        C355   1.291       .  A
O337        C354   1.286   1_554  A
O338       Zr346   2.384       .  S
O338        C353   1.273   1_556  A
O339       Zr344   2.390       .  S
O339       Zr346   2.387   1_554  S
O340       Zr345   2.395       .  S
O340       Zr346   2.387       .  S
O340        H375   0.966       .  S
O341       Zr344   2.401       .  S
O341       Zr361   2.378       .  S
O341        H378   0.962       .  S
O342       Zr345   2.378       .  S
O342       Zr361   2.396   1_556  S
Zr343       O368   2.440       .  S
Zr343       O362   2.448       .  S
Zr343       O370   2.483       .  S
Zr343       O358   2.458       .  S
Zr343       O349   2.410       .  S
Zr343       O350   2.414       .  S
Zr343       O351   2.391   1_556  S
Zr343       O352   2.386       .  S
Zr344       O363   2.434       .  S
Zr344       O356   2.432       .  S
Zr344       O357   2.432       .  S
Zr344       O350   2.408   1_554  S
Zr344       O351   2.403       .  S
Zr345       O347   2.437       .  S
Zr345       O369   2.437       .  S
Zr345       O371   2.388       .  S
Zr345       O349   2.399       .  S
Zr345       O352   2.415       .  S
Zr346       O372   2.435       .  S
Zr346       O373   2.432       .  S
Zr346       O348   2.441       .  S
Zr346       O349   2.394       .  S
Zr346       O350   2.370       .  S
O347        H384   0.990       .  S
O348        H379   0.990       .  S
O348        H393   0.989   1_556  S
O350        H376   0.963       .  S
O351       Zr361   2.375       .  S
O352       Zr361   2.359   1_556  S
O352        H377   0.966       .  S
C353       C1407   1.486       .  S
C354       C1424   1.487       .  S
C355       C1603   1.491       .  S
O356        H392   0.990       .  S
O357        C359   1.285   1_554  A
O358        C359   1.291       .  A
C359       C1435   1.492       .  S
O360       Zr361   2.437       .  S
O360        H389   0.990       .  S
Zr361       O364   2.438       .  S
Zr361       O365   2.439   1_554  S
Zr361       O366   2.422   1_554  S
O362        C367   1.286       .  A
O363        H380   0.990       .  S
O363        H395   0.989       .  S
O364        H381   0.990       .  S
O365        H385   0.990       .  S
O365        H394   0.990       .  S
O366        C367   1.281       .  A
C367       C1393   1.497       .  S
O368        H387   0.990       .  S
O368        H391   0.990       .  S
O369        H383   0.990       .  S
O369        H390   0.990       .  S
O370        C374   1.291       .  A
O371        C374   1.270       .  A
O372        H382   0.990       .  S
O373        H386   0.990       .  S
C374       C1620   1.486       .  S
Zr397       O398   2.449       .  S
Zr397       O399   2.511       .  S
Zr397       O400   2.444       .  S
Zr397       O403   2.445       .  S
Zr397       O405   2.375       .  S
Zr397       O406   2.391       .  S
Zr397       O407   2.436       .  S
Zr397       O408   2.429       .  S
O398        H454   0.990       .  S
O398        H462   0.990       .  S
O399        C419   1.297       .  A
O400        C421   1.284       .  A
O401       Zr411   2.419       .  S
O401        C420   1.282       .  A
O402       Zr410   2.481       .  S
O402        C421   1.292       .  A
O403        C420   1.284       .  A
O404       Zr412   2.384       .  S
O404        C419   1.274       .  A
O405       Zr410   2.394       .  S
O405       Zr412   2.394       .  S
O406       Zr411   2.400       .  S
O406       Zr412   2.388       .  S
O406        H441   0.966       .  S
O407       Zr410   2.392       .  S
O407       Zr427   2.402       .  S
O407        H444   0.962       .  S
O408       Zr411   2.375       .  S
O408       Zr427   2.410       .  S
Zr409       O434   2.440   1_554  S
Zr409       O428   2.438       .  S
Zr409       O436   2.477   1_554  S
Zr409       O424   2.449       .  S
Zr409       O415   2.401   1_554  S
Zr409       O416   2.415       .  S
Zr409       O417   2.392       .  S
Zr409       O418   2.380       .  S
Zr410       O429   2.435       .  S
Zr410       O422   2.437       .  S
Zr410       O423   2.421       .  S
Zr410       O416   2.418       .  S
Zr410       O417   2.411       .  S
Zr411       O413   2.435   1_554  S
Zr411       O435   2.436   1_554  S
Zr411       O437   2.406   1_554  S
Zr411       O415   2.387   1_554  S
Zr411       O418   2.402       .  S
Zr412       O438   2.438   1_554  S
Zr412       O439   2.432   1_554  S
Zr412       O414   2.438       .  S
Zr412       O415   2.388   1_554  S
Zr412       O416   2.371       .  S
O413        H450   0.990       .  S
O414        H445   0.990       .  S
O414        H459   0.989       .  S
O416        H442   0.963       .  S
O417       Zr427   2.370       .  S
O418       Zr427   2.370       .  S
O418        H443   0.965       .  S
C419       C1463   1.508       .  S
C420       C1365   1.497       .  S
C421       C1564   1.500       .  S
O422        H458   0.990       .  S
O423        C425   1.284       .  A
O424        C425   1.288       .  A
C425       C1351   1.485       .  S
O426       Zr427   2.436       .  S
O426        H455   0.990       .  S
Zr427       O430   2.436       .  S
Zr427       O431   2.444       .  S
Zr427       O432   2.460       .  S
O428        C433   1.283       .  A
O429        H446   0.990       .  S
O429        H461   0.990       .  S
O430        H447   0.990       .  S
O431        H451   0.990       .  S
O431        H460   0.989       .  S
O432        C433   1.288       .  A
C433       C1382   1.508       .  S
O434        H453   0.989       .  S
O434        H457   0.990       .  S
O435        H449   0.990       .  S
O435        H456   0.990       .  S
O436        C440   1.292       .  A
O437        C440   1.276       .  A
O438        H448   0.990       .  S
O439        H452   0.990       .  S
C440       C1578   1.495       .  S
Zr463       O464   2.440       .  S
Zr463       O465   2.437       .  S
Zr463       O466   2.481       .  S
Zr463       O469   2.465       .  S
Zr463       O471   2.382       .  S
Zr463       O472   2.393       .  S
Zr463       O473   2.413       .  S
Zr463       O474   2.399       .  S
O464        H520   0.990       .  S
O464        H528   0.990       .  S
O465        C485   1.283       .  A
O466        C487   1.292       .  A
O467       Zr477   2.411       .  S
O467        C486   1.282       .  A
O468       Zr476   2.406       .  S
O468        C487   1.278       .  A
O469        C486   1.292       .  A
O470       Zr478   2.447       .  S
O470        C485   1.286       .  A
O471       Zr476   2.403       .  S
O471       Zr478   2.375       .  S
O472       Zr477   2.395       .  S
O472       Zr478   2.369       .  S
O472        H507   0.965       .  S
O473       Zr476   2.399       .  S
O473       Zr493   2.391       .  S
O473        H510   0.965       .  S
O474       Zr477   2.400       .  S
O474       Zr493   2.376       .  S
Zr475       O500   2.443   1_554  S
Zr475       O494   2.484       .  S
Zr475       O502   2.437   1_554  S
Zr475       O490   2.458       .  S
Zr475       O481   2.412       .  S
Zr475       O482   2.425       .  S
Zr475       O483   2.381       .  S
Zr475       O484   2.378       .  S
Zr476       O495   2.435       .  S
Zr476       O488   2.437       .  S
Zr476       O489   2.409       .  S
Zr476       O482   2.394       .  S
Zr476       O483   2.397       .  S
Zr477       O479   2.436   1_554  S
Zr477       O501   2.437   1_554  S
Zr477       O503   2.455   1_554  S
Zr477       O481   2.375       .  S
Zr477       O484   2.378       .  S
Zr478       O504   2.436   1_554  S
Zr478       O505   2.435   1_554  S
Zr478       O480   2.435       .  S
Zr478       O481   2.407       .  S
Zr478       O482   2.400       .  S
O479        H516   0.990       .  S
O480        H511   0.990       .  S
O480        H525   0.990       .  S
O482        H508   0.963       .  S
O483       Zr493   2.390       .  S
O484       Zr493   2.390       .  S
O484        H509   0.965       .  S
C485       C1337   1.503       .  S
C486       C1368   1.503       .  S
C487       C1491   1.492       .  S
O488        H524   0.990       .  S
O489        C491   1.280       .  A
O490        C491   1.287       .  A
C491       C1354   1.504       .  S
O492       Zr493   2.434       .  S
O492        H521   0.990       .  S
Zr493       O496   2.437       .  S
Zr493       O497   2.438       .  S
Zr493       O498   2.396       .  S
O494        C499   1.290       .  A
O495        H512   0.990       .  S
O495        H527   0.990       .  S
O496        H513   0.990       .  S
O497        H517   0.990       .  S
O497        H526   0.990       .  S
O498        C499   1.275       .  A
C499       C1410   1.485       .  S
O500        H519   0.990   1_556  S
O500        H523   0.991       .  S
O501        H515   0.990       .  S
O501        H522   0.989       .  S
O502        C506   1.284       .  A
O503        C506   1.288       .  A
O504        H514   0.990       .  S
O505        H518   0.990       .  S
C506       C1508   1.493       .  S
Zr529       O530   2.442       .  S
Zr529       O531   2.516       .  S
Zr529       O532   2.440       .  S
Zr529       O535   2.445       .  S
Zr529       O537   2.375       .  S
Zr529       O538   2.380       .  S
Zr529       O539   2.440       .  S
Zr529       O540   2.418       .  S
O530        H586   0.990       .  S
O530        H594   0.991       .  S
O531        C551   1.298       .  A
O532        C553   1.284       .  A
O533       Zr543   2.425       .  S
O533        C552   1.283       .  A
O534       Zr542   2.470       .  S
O534        C553   1.291       .  A
O535        C552   1.286       .  A
O536       Zr544   2.375       .  S
O536        C551   1.272       .  A
O537       Zr542   2.397       .  S
O537       Zr544   2.394       .  S
O538       Zr543   2.393       .  S
O538       Zr544   2.386       .  S
O538        H573   0.966       .  S
O539       Zr542   2.396       .  S
O539       Zr559   2.395       .  S
O539        H576   0.962       .  S
O540       Zr543   2.364       .  S
O540       Zr559   2.403       .  S
Zr541       O566   2.442       .  S
Zr541       O560   2.452       .  S
Zr541       O568   2.482       .  S
Zr541       O556   2.468       .  S
Zr541       O547   2.401       .  S
Zr541       O548   2.410       .  S
Zr541       O549   2.392       .  S
Zr541       O550   2.388       .  S
Zr542       O561   2.437       .  S
Zr542       O554   2.434       .  S
Zr542       O555   2.424       .  S
Zr542       O548   2.412       .  S
Zr542       O549   2.406       .  S
Zr543       O545   2.436       .  S
Zr543       O567   2.436       .  S
Zr543       O569   2.386       .  S
Zr543       O547   2.397       .  S
Zr543       O550   2.401       .  S
Zr544       O570   2.434       .  S
Zr544       O571   2.435       .  S
Zr544       O546   2.440       .  S
Zr544       O547   2.381       .  S
Zr544       O548   2.369       .  S
O545        H582   0.990       .  S
O546        H577   0.990       .  S
O546        H591   0.990       .  S
O548        H574   0.963       .  S
O549       Zr559   2.370       .  S
O550       Zr559   2.368       .  S
O550        H575   0.966       .  S
C551       C1323   1.502       .  S
C552       C1267   1.488       .  S
C553       C1295   1.501       .  S
O554        H590   0.990       .  S
O555        C557   1.284       .  A
O556        C557   1.293       .  A
C557       C1281   1.487       .  S
O558       Zr559   2.435       .  S
O558        H587   0.990       .  S
Zr559       O562   2.436       .  S
Zr559       O563   2.439       .  S
Zr559       O564   2.439       .  S
O560        C565   1.286       .  A
O561        H578   0.990       .  S
O561        H593   0.989       .  S
O562        H579   0.990       .  S
O563        H583   0.990       .  S
O563        H592   0.988       .  S
O564        C565   1.284       .  A
C565       C1550   1.519       .  S
O566        H585   0.990       .  S
O566        H589   0.990       .  S
O567        H581   0.990       .  S
O567        H588   0.990       .  S
O568        C572   1.292       .  A
O569        C572   1.276       .  A
O570        H580   0.989       .  S
O571        H584   0.990       .  S
C572       C1309   1.477       .  S
Zr595       O596   2.439       .  S
Zr595       O597   2.509       .  S
Zr595       O598   2.428       .  S
Zr595       O601   2.482       .  S
Zr595       O603   2.377   1_455  S
Zr595       O604   2.385       .  S
Zr595       O605   2.432   1_455  S
Zr595       O606   2.413       .  S
O596        H652   0.989       .  S
O596        H660   0.991       .  S
O597        C617   1.298   1_455  A
O598        C619   1.285   1_455  A
O599       Zr609   2.384       .  S
O599        C618   1.275       .  A
O600       Zr608   2.475       .  S
O600        C619   1.293       .  A
O601        C618   1.293       .  A
O602       Zr610   2.419       .  S
O602        C617   1.282       .  A
O603       Zr608   2.384       .  S
O603       Zr610   2.377       .  S
O604       Zr609   2.396       .  S
O604       Zr610   2.379   1_455  S
O604        H639   0.966       .  S
O605       Zr608   2.403       .  S
O605       Zr625   2.374       .  S
O605        H642   0.962       .  S
O606       Zr609   2.380       .  S
O606       Zr625   2.395   1_455  S
Zr607       O632   2.442       .  S
Zr607       O626   2.468       .  S
Zr607       O634   2.477       .  S
Zr607       O622   2.457       .  S
Zr607       O613   2.411       .  S
Zr607       O614   2.417       .  S
Zr607       O615   2.388       .  S
Zr607       O616   2.379       .  S
Zr608       O627   2.434       .  S
Zr608       O620   2.433       .  S
Zr608       O621   2.431       .  S
Zr608       O614   2.416       .  S
Zr608       O615   2.407       .  S
Zr609       O611   2.437       .  S
Zr609       O633   2.436       .  S
Zr609       O635   2.374       .  S
Zr609       O613   2.383   1_455  S
Zr609       O616   2.395   1_455  S
Zr610       O636   2.437       .  S
Zr610       O637   2.435       .  S
Zr610       O612   2.435       .  S
Zr610       O613   2.399       .  S
Zr610       O614   2.388       .  S
O611        H648   0.990       .  S
O612        H643   0.990       .  S
O612        H657   0.988       .  S
O614        H640   0.963       .  S
O615       Zr625   2.379       .  S
O616       Zr625   2.367       .  S
O616        H641   0.966       .  S
C617       C1253   1.521       .  S
C618       C1284   1.485       .  S
C619       C1225   1.492       .  S
O620        H656   0.990       .  S
O621        C623   1.285       .  A
O622        C623   1.289       .  A
C623       C1270   1.488       .  S
O624       Zr625   2.434   1_455  S
O624        H653   0.990       .  S
Zr625       O628   2.436       .  S
Zr625       O629   2.437   1_655  S
Zr625       O630   2.414       .  S
O626        C631   1.289       .  A
O627        H644   0.990       .  S
O627        H659   0.988       .  S
O628        H645   0.990       .  S
O629        H649   0.990       .  S
O629        H658   0.990       .  S
O630        C631   1.279       .  A
C631       C1480   1.492       .  S
O632        H651   0.991       .  S
O632        H655   0.990       .  S
O633        H647   0.990       .  S
O633        H654   0.990       .  S
O634        C638   1.292       .  A
O635        C638   1.272   1_455  A
O636        H646   0.990       .  S
O637        H650   0.990       .  S
C638       C1239   1.476       .  S
Zr661       O662   2.440       .  S
Zr661       O663   2.538       .  S
Zr661       O664   2.446       .  S
Zr661       O667   2.452       .  S
Zr661       O669   2.373   1_655  S
Zr661       O670   2.384       .  S
Zr661       O671   2.440   1_655  S
Zr661       O672   2.428       .  S
O662        H718   0.989       .  S
O662        H726   0.991       .  S
O663        C683   1.303       .  A
O664        C685   1.285   1_655  A
O665       Zr675   2.444       .  S
O665        C684   1.286       .  A
O666       Zr674   2.455       .  S
O666        C685   1.289       .  A
O667        C684   1.287       .  A
O668       Zr676   2.367       .  S
O668        C683   1.270   1_455  A
O669       Zr674   2.395       .  S
O669       Zr676   2.394       .  S
O670       Zr675   2.400       .  S
O670       Zr676   2.389   1_655  S
O670        H705   0.966       .  S
O671       Zr674   2.391       .  S
O671       Zr691   2.396   1_455  S
O671        H708   0.962   1_455  S
O672       Zr675   2.365       .  S
O672       Zr691   2.410       .  S
Zr673       O698   2.440       .  S
Zr673       O692   2.454       .  S
Zr673       O700   2.472       .  S
Zr673       O688   2.466       .  S
Zr673       O679   2.411       .  S
Zr673       O680   2.411       .  S
Zr673       O681   2.387       .  S
Zr673       O682   2.397       .  S
Zr674       O693   2.434       .  S
Zr674       O686   2.431       .  S
Zr674       O687   2.415       .  S
Zr674       O680   2.411       .  S
Zr674       O681   2.396       .  S
Zr675       O677   2.438       .  S
Zr675       O699   2.436       .  S
Zr675       O701   2.397       .  S
Zr675       O679   2.403   1_655  S
Zr675       O682   2.416   1_655  S
Zr676       O702   2.437       .  S
Zr676       O703   2.435       .  S
Zr676       O678   2.441       .  S
Zr676       O679   2.383       .  S
Zr676       O680   2.370       .  S
O677        H714   0.990       .  S
O678        H709   0.990       .  S
O678        H723   0.989       .  S
O680        H706   0.963       .  S
O681       Zr691   2.368   1_455  S
O682       Zr691   2.362   1_455  S
O682        H707   0.965       .  S
C683       C1256   1.511       .  S
C684       C1172   1.506       .  S
C685       C1200   1.495   1_455  S
O686        H722   0.990       .  S
O687        C689   1.283       .  A
O688        C689   1.292       .  A
C689       C1183   1.485       .  S
O690       Zr691   2.437       .  S
O690        H719   0.990       .  S
Zr691       O694   2.433   1_655  S
Zr691       O695   2.444       .  S
Zr691       O696   2.459   1_655  S
O692        C697   1.287       .  A
O693        H710   0.990       .  S
O693        H725   0.989       .  S
O694        H711   0.990       .  S
O695        H715   0.990       .  S
O695        H724   0.990       .  S
O696        C697   1.288       .  A
C697       C1676   1.508       .  S
O698        H717   0.990       .  S
O698        H721   0.991       .  S
O699        H713   0.990       .  S
O699        H720   0.990       .  S
O700        C704   1.289       .  A
O701        C704   1.273   1_655  A
O702        H712   0.990       .  S
O703        H716   0.990       .  S
C704       C1211   1.483       .  S
Zr727       O728   2.440       .  S
Zr727       O729   2.476       .  S
Zr727       O730   2.493       .  S
Zr727       O733   2.476       .  S
Zr727       O735   2.397       .  S
Zr727       O736   2.399       .  S
Zr727       O737   2.429       .  S
Zr727       O738   2.409       .  S
O728        H784   0.991       .  S
O728        H792   0.990       .  S
O729        C749   1.290       .  A
O730        C751   1.291       .  A
O731       Zr741   2.439       .  S
O731        C750   1.285       .  A
O732       Zr740   2.411       .  S
O732        C751   1.276       .  A
O733        C750   1.294       .  A
O734       Zr742   2.434       .  S
O734        C749   1.284       .  A
O735       Zr740   2.415       .  S
O735       Zr742   2.377       .  S
O736       Zr741   2.393       .  S
O736       Zr742   2.374       .  S
O736        H771   0.965       .  S
O737       Zr740   2.396       .  S
O737       Zr757   2.380       .  S
O737        H774   0.963       .  S
O738       Zr741   2.401       .  S
O738       Zr757   2.388       .  S
Zr739       O764   2.442       .  S
Zr739       O758   2.516       .  S
Zr739       O766   2.436       .  S
Zr739       O754   2.452       .  S
Zr739       O745   2.415       .  S
Zr739       O746   2.427       .  S
Zr739       O747   2.377       .  S
Zr739       O748   2.383       .  S
Zr740       O759   2.434       .  S
Zr740       O752   2.437       .  S
Zr740       O753   2.434       .  S
Zr740       O746   2.386       .  S
Zr740       O747   2.399       .  S
Zr741       O743   2.436       .  S
Zr741       O765   2.439       .  S
Zr741       O767   2.464       .  S
Zr741       O745   2.375       .  S
Zr741       O748   2.397       .  S
Zr742       O768   2.433       .  S
Zr742       O769   2.435       .  S
Zr742       O744   2.437       .  S
Zr742       O745   2.392       .  S
Zr742       O746   2.390       .  S
O743        H780   0.990       .  S
O744        H775   0.989       .  S
O744        H789   0.989       .  S
O746        H772   0.962       .  S
O747       Zr757   2.392       .  S
O748       Zr757   2.386       .  S
O748        H773   0.965       .  S
C749       C1592   1.528       .  S
C750       C1169   1.495       .  S
C751       C1141   1.502       .  S
O752        H788   0.990       .  S
O753        C755   1.283       .  A
O754        C755   1.286       .  A
C755       C1186   1.480       .  S
O756       Zr757   2.433       .  S
O756        H785   0.990       .  S
Zr757       O760   2.436       .  S
Zr757       O761   2.440       .  S
Zr757       O762   2.390       .  S
O758        C763   1.299       .  A
O759        H776   0.990       .  S
O759        H791   0.990       .  S
O760        H777   0.990       .  S
O761        H781   0.990       .  S
O761        H790   0.990       .  S
O762        C763   1.274       .  A
C763       C1326   1.504       .  S
O764        H783   0.989       .  S
O764        H787   0.991       .  S
O765        H779   0.990       .  S
O765        H786   0.990       .  S
O766        C770   1.284       .  A
O767        C770   1.291       .  A
O768        H778   0.990       .  S
O769        H782   0.991       .  S
C770       C1158   1.498       .  S
Zr793       O794   2.440       .  S
Zr793       O795   2.469       .  S
Zr793       O796   2.463       .  S
Zr793       O799   2.437       .  S
Zr793       O801   2.386       .  S
Zr793       O802   2.396   1_554  S
Zr793       O803   2.432       .  S
Zr793       O804   2.407       .  S
O794        H850   0.990       .  S
O794        H858   0.990       .  S
O795        C815   1.288       .  A
O796        C817   1.284       .  A
O797       Zr807   2.456       .  S
O797        C816   1.290   1_556  A
O798       Zr806   2.396       .  S
O798        C817   1.271   1_655  A
O799        C816   1.286       .  A
O800       Zr808   2.442   1_554  S
O800        C815   1.285       .  A
O801       Zr806   2.407   1_455  S
O801       Zr808   2.371   1_554  S
O802       Zr807   2.389       .  S
O802       Zr808   2.377       .  S
O802        H837   0.965       .  S
O803       Zr806   2.396   1_455  S
O803       Zr823   2.397       .  S
O803        H840   0.963       .  S
O804       Zr807   2.399   1_554  S
O804       Zr823   2.393       .  S
Zr805       O830   2.443       .  S
Zr805       O824   2.501       .  S
Zr805       O832   2.384       .  S
Zr805       O820   2.454       .  S
Zr805       O811   2.420   1_655  S
Zr805       O812   2.420   1_556  S
Zr805       O813   2.368   1_556  S
Zr805       O814   2.387   1_655  S
Zr806       O825   2.435       .  S
Zr806       O818   2.436       .  S
Zr806       O819   2.414       .  S
Zr806       O812   2.388       .  S
Zr806       O813   2.395       .  S
Zr807       O809   2.437       .  S
Zr807       O831   2.438       .  S
Zr807       O833   2.482       .  S
Zr807       O811   2.387       .  S
Zr807       O814   2.379       .  S
Zr808       O834   2.435       .  S
Zr808       O835   2.434   1_455  S
Zr808       O810   2.436   1_456  S
Zr808       O811   2.398       .  S
Zr808       O812   2.406   1_456  S
O809        H846   0.990       .  S
O810        H841   0.990       .  S
O810        H855   0.990       .  S
O812        H838   0.964   1_554  S
O813       Zr823   2.381   1_655  S
O814       Zr823   2.388   1_556  S
O814        H839   0.964       .  S
C815       C1379   1.504       .  S
C816       C1116   1.490       .  S
C817       C1228   1.494       .  S
O818        H854   0.991       .  S
O819        C821   1.279       .  A
O820        C821   1.286   1_556  A
C821       C1099   1.486       .  S
O822       Zr823   2.431       .  S
O822        H851   0.990       .  S
Zr823       O826   2.436       .  S
Zr823       O827   2.440       .  S
Zr823       O828   2.412   1_554  S
O824        C829   1.296   1_655  A
O825        H842   0.990       .  S
O825        H857   0.990       .  S
O826        H843   0.990       .  S
O827        H847   0.990   1_455  S
O827        H856   0.990       .  S
O828        C829   1.280       .  A
C829       C1127   1.510       .  S
O830        H849   0.989       .  S
O830        H853   0.991       .  S
O831        H845   0.990       .  S
O831        H852   0.990       .  S
O832        C836   1.274   1_655  A
O833        C836   1.294       .  A
O834        H844   0.990       .  S
O835        H848   0.990       .  S
C836       C1242   1.480   1_455  S
Zr859       O860   2.440       .  S
Zr859       O861   2.449       .  S
Zr859       O862   2.475       .  S
Zr859       O865   2.456       .  S
Zr859       O867   2.398       .  S
Zr859       O868   2.401       .  S
Zr859       O869   2.426       .  S
Zr859       O870   2.401       .  S
O860        H916   0.990       .  S
O860        H924   0.991       .  S
O861        C881   1.286       .  A
O862        C883   1.286       .  A
O863       Zr873   2.431       .  S
O863        C882   1.285   1_556  A
O864       Zr872   2.404       .  S
O864        C883   1.272       .  A
O865        C882   1.290       .  A
O866       Zr874   2.446       .  S
O866        C881   1.286       .  A
O867       Zr872   2.415       .  S
O867       Zr874   2.368       .  S
O868       Zr873   2.396   1_554  S
O868       Zr874   2.376       .  S
O868        H903   0.965       .  S
O869       Zr872   2.406       .  S
O869       Zr889   2.376       .  S
O869        H906   0.963       .  S
O870       Zr873   2.402   1_554  S
O870       Zr889   2.380       .  S
Zr871       O896   2.443       .  S
Zr871       O890   2.496       .  S
Zr871       O898   2.416       .  S
Zr871       O886   2.429   1_556  S
Zr871       O877   2.420       .  S
Zr871       O878   2.427   1_556  S
Zr871       O879   2.376   1_556  S
Zr871       O880   2.386       .  S
Zr872       O891   2.434       .  S
Zr872       O884   2.437       .  S
Zr872       O885   2.448       .  S
Zr872       O878   2.388       .  S
Zr872       O879   2.381       .  S
Zr873       O875   2.438       .  S
Zr873       O897   2.436       .  S
Zr873       O899   2.456       .  S
Zr873       O877   2.378       .  S
Zr873       O880   2.391       .  S
Zr874       O900   2.433   1_554  S
Zr874       O901   2.438   1_554  S
Zr874       O876   2.438       .  S
Zr874       O877   2.405   1_554  S
Zr874       O878   2.395       .  S
O875        H912   0.990       .  S
O876        H907   0.990       .  S
O876        H921   0.990       .  S
O878        H904   0.963       .  S
O879       Zr889   2.388       .  S
O880       Zr889   2.390   1_556  S
O880        H905   0.964       .  S
C881       C1340   1.506       .  S
C882       C1102   1.494       .  S
C883       C1298   1.496       .  S
O884        H920   0.990       .  S
O885        C887   1.287       .  A
O886        C887   1.282       .  A
C887       C1113   1.495       .  S
O888       Zr889   2.432       .  S
O888        H917   0.990       .  S
Zr889       O892   2.435       .  S
Zr889       O893   2.436       .  S
Zr889       O894   2.381       .  S
O890        C895   1.291       .  A
O891        H908   0.990       .  S
O891        H923   0.989       .  S
O892        H909   0.990       .  S
O893        H913   0.990       .  S
O893        H922   0.990       .  S
O894        C895   1.267   1_554  A
C895       C1085   1.497       .  S
O896        H915   0.989       .  S
O896        H919   0.991       .  S
O897        H911   0.990       .  S
O897        H918   0.989       .  S
O898        C902   1.279       .  A
O899        C902   1.289       .  A
O900        H910   0.990       .  S
O901        H914   0.990       .  S
C902       C1312   1.487       .  S
Zr925       O926   2.440   1_556  S
Zr925       O927   2.498       .  S
Zr925       O928   2.465   1_556  S
Zr925       O931   2.448       .  S
Zr925       O933   2.379       .  S
Zr925       O934   2.390       .  S
Zr925       O935   2.425       .  S
Zr925       O936   2.414       .  S
O926        H982   0.989       .  S
O926        H990   0.991       .  S
O927        C947   1.294       .  A
O928        C949   1.290       .  A
O929       Zr939   2.429       .  S
O929        C948   1.285       .  A
O930       Zr938   2.469   1_554  S
O930        C949   1.292       .  A
O931        C948   1.287       .  A
O932       Zr940   2.367       .  S
O932        C947   1.269       .  A
O933       Zr938   2.396       .  S
O933       Zr940   2.399       .  S
O934       Zr939   2.384       .  S
O934       Zr940   2.375       .  S
O934        H969   0.966       .  S
O935       Zr938   2.398       .  S
O935       Zr955   2.371       .  S
O935        H972   0.961   1_556  S
O936       Zr939   2.369       .  S
O936       Zr955   2.380       .  S
Zr937       O962   2.441       .  S
Zr937       O956   2.468       .  S
Zr937       O964   2.493       .  S
Zr937       O952   2.478       .  S
Zr937       O943   2.411       .  S
Zr937       O944   2.416       .  S
Zr937       O945   2.387       .  S
Zr937       O946   2.394       .  S
Zr938       O957   2.435   1_556  S
Zr938       O950   2.432   1_556  S
Zr938       O951   2.442       .  S
Zr938       O944   2.407       .  S
Zr938       O945   2.400       .  S
Zr939       O941   2.432       .  S
Zr939       O963   2.436       .  S
Zr939       O965   2.383       .  S
Zr939       O943   2.393       .  S
Zr939       O946   2.400       .  S
Zr940       O966   2.435       .  S
Zr940       O967   2.437       .  S
Zr940       O942   2.440       .  S
Zr940       O943   2.376       .  S
Zr940       O944   2.354       .  S
O941        H978   0.990       .  S
O942        H973   0.990       .  S
O942        H987   0.990       .  S
O944        H970   0.961       .  S
O945       Zr955   2.385       .  S
O946       Zr955   2.367       .  S
O946        H971   0.965       .  S
C947       C1088   1.489       .  S
C948       C1057   1.494       .  S
C949       C1144   1.508       .  S
O950        H986   0.990       .  S
O951        C953   1.288       .  A
O952        C953   1.295       .  A
C953       C1071   1.505       .  S
O954       Zr955   2.440       .  S
O954        H983   0.990   1_556  S
Zr955       O958   2.438       .  S
Zr955       O959   2.441       .  S
Zr955       O960   2.392       .  S
O956        C961   1.289       .  A
O957        H974   0.990       .  S
O957        H989   0.989       .  S
O958        H975   0.991       .  S
O959        H979   0.990       .  S
O959        H988   0.989       .  S
O960        C961   1.276       .  A
C961       C1452   1.490       .  S
O962        H981   0.990       .  S
O962        H985   0.990       .  S
O963        H977   0.990       .  S
O963        H984   0.990       .  S
O964        C968   1.294       .  A
O965        C968   1.276       .  A
O966        H976   0.991       .  S
O967        H980   0.990       .  S
C968       C1155   1.482       .  S
Zr991       O992   2.441   1_556  S
Zr991       O993   2.451       .  S
Zr991       O994   2.490   1_556  S
Zr991       O997   2.467       .  S
Zr991       O999   2.385       .  S
Zr991      O1000   2.396       .  S
Zr991      O1001   2.410       .  S
Zr991      O1002   2.397       .  S
O992       H1048   0.990       .  S
O992       H1056   0.990       .  S
O993       C1013   1.286       .  A
O994       C1015   1.294       .  A
O995      Zr1005   2.421       .  S
O995       C1014   1.283       .  A
O996      Zr1004   2.399   1_554  S
O996       C1015   1.278   1_455  A
O997       C1014   1.292       .  A
O998      Zr1006   2.433       .  S
O998       C1013   1.282       .  A
O999      Zr1004   2.406   1_655  S
O999      Zr1006   2.372       .  S
O1000     Zr1005   2.403       .  S
O1000     Zr1006   2.373       .  S
O1000      H1035   0.965       .  S
O1001     Zr1004   2.405   1_655  S
O1001     Zr1021   2.368       .  S
O1001      H1038   0.963   1_556  S
O1002     Zr1005   2.396       .  S
O1002     Zr1021   2.371       .  S
Zr1003     O1028   2.443       .  S
Zr1003     O1022   2.519       .  S
Zr1003     O1030   2.431       .  S
Zr1003     O1018   2.457       .  S
Zr1003     O1009   2.418   1_455  S
Zr1003     O1010   2.430       .  S
Zr1003     O1011   2.373       .  S
Zr1003     O1012   2.386   1_455  S
Zr1004     O1023   2.437   1_556  S
Zr1004     O1016   2.435   1_556  S
Zr1004     O1017   2.433       .  S
Zr1004     O1010   2.383       .  S
Zr1004     O1011   2.395       .  S
Zr1005     O1007   2.435       .  S
Zr1005     O1029   2.438       .  S
Zr1005     O1031   2.451       .  S
Zr1005     O1009   2.369       .  S
Zr1005     O1012   2.398       .  S
Zr1006     O1032   2.435       .  S
Zr1006     O1033   2.434   1_655  S
Zr1006     O1008   2.438   1_655  S
Zr1006     O1009   2.400       .  S
Zr1006     O1010   2.392   1_655  S
O1007      H1044   0.990       .  S
O1008      H1039   0.990       .  S
O1008      H1053   0.990       .  S
O1010      H1036   0.963       .  S
O1011     Zr1021   2.393   1_455  S
O1012     Zr1021   2.392       .  S
O1012      H1037   0.966       .  S
C1013      C1396   1.502       .  S
C1014      C1060   1.483       .  S
C1015      C1197   1.480       .  S
O1016      H1052   0.990       .  S
O1017      C1019   1.284       .  A
O1018      C1019   1.286       .  A
C1019      C1074   1.486       .  S
O1020     Zr1021   2.438   1_554  S
O1020      H1049   0.990       .  S
Zr1021     O1024   2.438   1_556  S
Zr1021     O1025   2.436       .  S
Zr1021     O1026   2.366       .  S
O1022      C1027   1.298   1_455  A
O1023      H1040   0.990       .  S
O1023      H1055   0.990       .  S
O1024      H1041   0.990       .  S
O1025      H1045   0.990       .  S
O1025      H1054   0.989       .  S
O1026      C1027   1.271       .  A
C1027      C1130   1.502   1_655  S
O1028      H1047   0.991       .  S
O1028      H1051   0.990       .  S
O1029      H1043   0.990       .  S
O1029      H1050   0.989       .  S
O1030      C1034   1.284   1_455  A
O1031      C1034   1.288       .  A
O1032      H1042   0.990       .  S
O1033      H1046   0.991       .  S
C1034      C1214   1.491       .  S
C1057      C1058   1.417       .  A
C1057      C1062   1.418       .  A
C1058      C1059   1.414       .  A
C1058      C1063   1.451       .  S
C1059      C1060   1.412       .  A
C1059      C1066   1.450       .  S
C1060      C1061   1.409       .  A
C1061      C1062   1.410       .  A
C1061      C1064   1.452       .  S
C1062      C1065   1.451       .  S
C1063      N1070   1.157       .  T
C1064      N1069   1.157       .  T
C1065      N1067   1.157       .  T
C1066      N1068   1.157       .  T
C1071      C1072   1.427       .  A
C1071      C1076   1.417       .  A
C1072      C1073   1.412       .  A
C1072      C1077   1.449       .  S
C1073      C1074   1.404       .  A
C1073      C1080   1.453       .  S
C1074      C1075   1.415       .  A
C1075      C1076   1.415       .  A
C1075      C1078   1.450       .  S
C1076      C1079   1.451       .  S
C1077      N1084   1.156   1_556  T
C1078      N1083   1.157       .  T
C1079      N1081   1.157       .  T
C1080      N1082   1.157   1_556  T
C1085      C1086   1.420   1_556  A
C1085      C1090   1.415       .  A
C1086      C1087   1.416       .  A
C1086      C1091   1.451       .  S
C1087      C1088   1.410   1_554  A
C1087      C1094   1.451       .  S
C1088      C1089   1.415       .  A
C1089      C1090   1.415       .  A
C1089      C1092   1.452       .  S
C1090      C1093   1.450       .  S
C1091      N1098   1.157       .  T
C1092      N1097   1.157       .  T
C1093      N1095   1.157       .  T
C1094      N1096   1.157       .  T
C1099      C1100   1.413   1_554  A
C1099      C1104   1.411       .  A
C1100      C1101   1.413       .  A
C1100      C1105   1.452       .  S
C1101      C1102   1.417   1_556  A
C1101      C1108   1.451       .  S
C1102      C1103   1.417       .  A
C1103      C1104   1.412       .  A
C1103      C1106   1.450       .  S
C1104      C1107   1.452       .  S
C1105      N1112   1.157       .  T
C1106      N1111   1.157       .  T
C1107      N1109   1.157       .  T
C1108      N1110   1.157       .  T
C1113      C1114   1.418       .  A
C1113      C1118   1.418       .  A
C1114      C1115   1.414       .  A
C1114      C1119   1.452   1_554  S
C1115      C1116   1.414       .  A
C1115      C1122   1.450   1_554  S
C1116      C1117   1.413       .  A
C1117      C1118   1.411       .  A
C1117      C1120   1.453       .  S
C1118      C1121   1.452       .  S
C1119      N1126   1.158       .  T
C1120      N1125   1.157       .  T
C1121      N1123   1.157       .  T
C1122      N1124   1.157       .  T
C1127      C1128   1.412   1_455  A
C1127      C1132   1.426       .  A
C1128      C1129   1.417       .  A
C1128      C1133   1.450       .  S
C1129      C1130   1.421   1_655  A
C1129      C1136   1.451       .  S
C1130      C1131   1.409       .  A
C1131      C1132   1.419       .  A
C1131      C1134   1.450       .  S
C1132      C1135   1.451       .  S
C1133      N1140   1.157       .  T
C1134      N1139   1.157       .  T
C1135      N1137   1.157       .  T
C1136      N1138   1.157       .  T
C1141      C1142   1.414       .  A
C1141      C1146   1.416       .  A
C1142      C1143   1.418       .  A
C1142      C1147   1.452       .  S
C1143      C1144   1.422       .  A
C1143      C1150   1.450       .  S
C1144      C1145   1.417       .  A
C1145      C1146   1.417       .  A
C1145      C1148   1.451       .  S
C1146      C1149   1.449       .  S
C1147      N1154   1.157       .  T
C1148      N1153   1.157       .  T
C1149      N1151   1.157       .  T
C1150      N1152   1.157       .  T
C1155      C1156   1.410       .  A
C1155      C1160   1.410       .  A
C1156      C1157   1.414       .  A
C1156      C1161   1.451       .  S
C1157      C1158   1.419       .  A
C1157      C1164   1.451       .  S
C1158      C1159   1.418       .  A
C1159      C1160   1.414       .  A
C1159      C1162   1.449       .  S
C1160      C1163   1.452       .  S
C1161      N1168   1.157       .  T
C1162      N1167   1.157       .  T
C1163      N1165   1.157       .  T
C1164      N1166   1.157       .  T
C1169      C1170   1.413       .  A
C1169      C1174   1.412       .  A
C1170      C1171   1.418       .  A
C1170      C1175   1.451       .  S
C1171      C1172   1.421       .  A
C1171      C1178   1.451       .  S
C1172      C1173   1.417       .  A
C1173      C1174   1.415       .  A
C1173      C1176   1.450       .  S
C1174      C1177   1.448       .  S
C1175      N1182   1.157       .  T
C1176      N1181   1.157       .  T
C1177      N1179   1.156       .  T
C1178      N1180   1.157       .  T
C1183      C1184   1.419       .  A
C1183      C1188   1.410       .  A
C1184      C1185   1.410       .  A
C1184      C1189   1.451       .  S
C1185      C1186   1.406       .  A
C1185      C1192   1.451       .  S
C1186      C1187   1.416       .  A
C1187      C1188   1.412       .  A
C1187      C1190   1.450       .  S
C1188      C1191   1.452       .  S
C1189      N1196   1.157       .  T
C1190      N1195   1.157       .  T
C1191      N1193   1.158       .  T
C1192      N1194   1.157       .  T
C1197      C1198   1.406       .  A
C1197      C1202   1.413       .  A
C1198      C1199   1.412   1_655  A
C1198      C1203   1.452       .  S
C1199      C1200   1.420   1_455  A
C1199      C1206   1.448       .  S
C1200      C1201   1.416       .  A
C1201      C1202   1.414       .  A
C1201      C1204   1.452       .  S
C1202      C1205   1.450       .  S
C1203      N1210   1.157   1_655  T
C1204      N1209   1.157       .  T
C1205      N1207   1.157       .  T
C1206      N1208   1.156       .  T
C1211      C1212   1.411   1_455  A
C1211      C1216   1.411       .  A
C1212      C1213   1.411       .  A
C1212      C1217   1.453       .  S
C1213      C1214   1.417       .  A
C1213      C1220   1.449       .  S
C1214      C1215   1.416   1_655  A
C1215      C1216   1.411       .  A
C1215      C1218   1.452       .  S
C1216      C1219   1.448       .  S
C1217      N1224   1.157       .  T
C1218      N1223   1.157       .  T
C1219      N1221   1.156       .  T
C1220      N1222   1.157       .  T
C1225      C1226   1.416       .  A
C1225      C1230   1.415   1_655  A
C1226      C1227   1.413       .  A
C1226      C1231   1.449       .  S
C1227      C1228   1.415   1_655  A
C1227      C1234   1.453       .  S
C1228      C1229   1.417       .  A
C1229      C1230   1.412       .  A
C1229      C1232   1.450       .  S
C1230      C1233   1.453       .  S
C1231      N1238   1.157       .  T
C1232      N1237   1.157       .  T
C1233      N1235   1.157       .  T
C1234      N1236   1.157       .  T
C1239      C1240   1.415       .  A
C1239      C1244   1.410       .  A
C1240      C1241   1.413   1_655  A
C1240      C1245   1.449   1_655  S
C1241      C1242   1.409   1_455  A
C1241      C1248   1.450       .  S
C1242      C1243   1.416       .  A
C1243      C1244   1.407       .  A
C1243      C1246   1.453       .  S
C1244      C1247   1.452       .  S
C1245      N1252   1.157       .  T
C1246      N1251   1.157       .  T
C1247      N1249   1.157       .  T
C1248      N1250   1.157       .  T
C1253      C1254   1.426       .  A
C1253      C1258   1.415   1_655  A
C1254      C1255   1.420       .  A
C1254      C1259   1.449       .  S
C1255      C1256   1.407       .  A
C1255      C1262   1.447       .  S
C1256      C1257   1.423   1_655  A
C1257      C1258   1.424       .  A
C1257      C1260   1.450       .  S
C1258      C1261   1.449       .  S
C1259      N1266   1.157       .  T
C1260      N1265   1.157       .  T
C1261      N1263   1.158       .  T
C1262      N1264   1.156       .  T
C1267      C1268   1.416       .  A
C1267      C1272   1.412       .  A
C1268      C1269   1.410       .  A
C1268      C1273   1.450       .  S
C1269      C1270   1.411       .  A
C1269      C1276   1.452       .  S
C1270      C1271   1.418       .  A
C1271      C1272   1.413       .  A
C1271      C1274   1.451       .  S
C1272      C1275   1.452       .  S
C1273      N1280   1.157       .  T
C1274      N1279   1.157       .  T
C1275      N1277   1.158       .  T
C1276      N1278   1.157       .  T
C1281      C1282   1.413       .  A
C1281      C1286   1.414       .  A
C1282      C1283   1.415       .  A
C1282      C1287   1.450       .  S
C1283      C1284   1.413       .  A
C1283      C1290   1.450       .  S
C1284      C1285   1.413       .  A
C1285      C1286   1.410       .  A
C1285      C1288   1.452       .  S
C1286      C1289   1.451       .  S
C1287      N1294   1.157       .  T
C1288      N1293   1.157       .  T
C1289      N1291   1.157       .  T
C1290      N1292   1.157       .  T
C1295      C1296   1.419       .  A
C1295      C1300   1.417       .  A
C1296      C1297   1.415       .  A
C1296      C1301   1.449       .  S
C1297      C1298   1.414       .  A
C1297      C1304   1.452       .  S
C1298      C1299   1.416       .  A
C1299      C1300   1.415       .  A
C1299      C1302   1.450       .  S
C1300      C1303   1.451       .  S
C1301      N1308   1.157       .  T
C1302      N1307   1.157       .  T
C1303      N1305   1.157       .  T
C1304      N1306   1.157       .  T
C1309      C1310   1.410       .  A
C1309      C1314   1.410       .  A
C1310      C1311   1.411       .  A
C1310      C1315   1.450       .  S
C1311      C1312   1.416       .  A
C1311      C1318   1.452       .  S
C1312      C1313   1.414       .  A
C1313      C1314   1.412       .  A
C1313      C1316   1.449       .  S
C1314      C1317   1.451       .  S
C1315      N1322   1.157       .  T
C1316      N1321   1.157       .  T
C1317      N1319   1.157       .  T
C1318      N1320   1.157       .  T
C1323      C1324   1.419       .  A
C1323      C1328   1.412       .  A
C1324      C1325   1.421       .  A
C1324      C1329   1.451       .  S
C1325      C1326   1.414       .  A
C1325      C1332   1.450       .  S
C1326      C1327   1.420       .  A
C1327      C1328   1.420       .  A
C1327      C1330   1.450       .  S
C1328      C1331   1.450       .  S
C1329      N1336   1.157       .  T
C1330      N1335   1.157       .  T
C1331      N1333   1.157       .  T
C1332      N1334   1.157       .  T
C1337      C1338   1.415       .  A
C1337      C1342   1.420       .  A
C1338      C1339   1.418       .  A
C1338      C1343   1.451       .  S
C1339      C1340   1.420       .  A
C1339      C1346   1.451       .  S
C1340      C1341   1.416       .  A
C1341      C1342   1.417       .  A
C1341      C1344   1.451       .  S
C1342      C1345   1.453       .  S
C1343      N1350   1.157       .  T
C1344      N1349   1.157       .  T
C1345      N1347   1.158       .  T
C1346      N1348   1.157       .  T
C1351      C1352   1.410       .  A
C1351      C1356   1.414       .  A
C1352      C1353   1.409   1_455  A
C1352      C1357   1.453       .  S
C1353      C1354   1.425       .  A
C1353      C1360   1.453       .  S
C1354      C1355   1.423       .  A
C1355      C1356   1.410   1_655  A
C1355      C1358   1.451       .  S
C1356      C1359   1.454       .  S
C1357      N1364   1.157       .  T
C1358      N1363   1.157   1_554  T
C1359      N1361   1.157   1_554  T
C1360      N1362   1.157       .  T
C1365      C1366   1.418       .  A
C1365      C1370   1.415       .  A
C1366      C1367   1.416       .  A
C1366      C1371   1.452       .  S
C1367      C1368   1.420       .  A
C1367      C1374   1.451       .  S
C1368      C1369   1.422       .  A
C1369      C1370   1.408       .  A
C1369      C1372   1.453   1_554  S
C1370      C1373   1.455   1_554  S
C1371      N1378   1.157       .  T
C1372      N1377   1.157       .  T
C1373      N1375   1.157       .  T
C1374      N1376   1.157       .  T
C1379      C1380   1.415       .  A
C1379      C1384   1.416       .  A
C1380      C1381   1.424       .  A
C1380      C1385   1.450       .  S
C1381      C1382   1.419       .  A
C1381      C1388   1.450       .  S
C1382      C1383   1.416       .  A
C1383      C1384   1.416       .  A
C1383      C1386   1.451   1_554  S
C1384      C1387   1.452   1_554  S
C1385      N1392   1.157       .  T
C1386      N1391   1.157       .  T
C1387      N1389   1.157       .  T
C1388      N1390   1.157       .  T
C1393      C1394   1.416       .  A
C1393      C1398   1.414       .  A
C1394      C1395   1.418       .  A
C1394      C1399   1.452       .  S
C1395      C1396   1.416       .  A
C1395      C1402   1.450       .  S
C1396      C1397   1.418       .  A
C1397      C1398   1.414       .  A
C1397      C1400   1.450       .  S
C1398      C1401   1.452       .  S
C1399      N1406   1.157       .  T
C1400      N1405   1.157       .  T
C1401      N1403   1.157       .  T
C1402      N1404   1.157   1_655  T
C1407      C1408   1.417       .  A
C1407      C1412   1.409       .  A
C1408      C1409   1.415   1_565  A
C1408      C1413   1.450       .  S
C1409      C1410   1.409       .  A
C1409      C1416   1.450       .  S
C1410      C1411   1.416       .  A
C1411      C1412   1.413   1_545  A
C1411      C1414   1.451       .  S
C1412      C1415   1.450   1_554  S
C1413      N1420   1.157       .  T
C1414      N1419   1.157   1_554  T
C1415      N1417   1.157       .  T
C1416      N1418   1.157       .  T
C1421      C1422   1.415   1_556  A
C1421      C1426   1.419       .  A
C1422      C1423   1.413       .  A
C1422      C1427   1.451       .  S
C1423      C1424   1.413   1_554  A
C1423      C1430   1.451       .  S
C1424      C1425   1.412       .  A
C1425      C1426   1.412       .  A
C1425      C1428   1.453       .  S
C1426      C1429   1.451       .  S
C1427      N1434   1.157       .  T
C1428      N1433   1.157       .  T
C1429      N1431   1.157       .  T
C1430      N1432   1.157       .  T
C1435      C1436   1.416   1_656  A
C1435      C1440   1.416   1_655  A
C1436      C1437   1.414       .  A
C1436      C1441   1.450   1_455  S
C1437      C1438   1.414   1_554  A
C1437      C1444   1.451       .  S
C1438      C1439   1.416       .  A
C1439      C1440   1.410       .  A
C1439      C1442   1.453       .  S
C1440      C1443   1.452   1_455  S
C1441      N1448   1.157       .  T
C1442      N1447   1.157       .  T
C1443      N1445   1.157       .  T
C1444      N1446   1.157       .  T
C1449      C1450   1.427       .  A
C1449      C1454   1.427       .  A
C1450      C1451   1.415       .  A
C1450      C1455   1.451       .  S
C1451      C1452   1.411       .  A
C1451      C1458   1.453       .  S
C1452      C1453   1.410       .  A
C1453      C1454   1.416       .  A
C1453      C1456   1.453       .  S
C1454      C1457   1.451       .  S
C1455      N1462   1.157       .  T
C1456      N1461   1.157       .  T
C1457      N1459   1.157       .  T
C1458      N1460   1.157       .  T
C1463      C1464   1.411       .  A
C1463      C1468   1.422       .  A
C1464      C1465   1.421   1_545  A
C1464      C1469   1.449       .  S
C1465      C1466   1.424       .  A
C1465      C1472   1.450       .  S
C1466      C1467   1.410       .  A
C1467      C1468   1.418   1_565  A
C1467      C1470   1.450       .  S
C1468      C1471   1.450       .  S
C1469      N1476   1.157       .  T
C1470      N1475   1.157       .  T
C1471      N1473   1.157       .  T
C1472      N1474   1.157       .  T
C1477      C1478   1.414       .  A
C1477      C1482   1.416       .  A
C1478      C1479   1.416       .  A
C1478      C1483   1.449       .  S
C1479      C1480   1.413       .  A
C1479      C1486   1.451       .  S
C1480      C1481   1.411       .  A
C1481      C1482   1.417       .  A
C1481      C1484   1.448       .  S
C1482      C1485   1.450       .  S
C1483      N1490   1.157       .  T
C1484      N1489   1.157       .  T
C1485      N1487   1.157       .  T
C1486      N1488   1.157       .  T
C1491      C1492   1.407       .  A
C1491      C1496   1.416       .  A
C1492      C1493   1.411       .  A
C1492      C1497   1.455       .  S
C1493      C1494   1.426       .  A
C1493      C1500   1.450       .  S
C1494      C1495   1.415       .  A
C1495      C1496   1.421       .  A
C1495      C1498   1.448       .  S
C1496      C1499   1.449       .  S
C1497      N1504   1.157       .  T
C1498      N1503   1.157       .  T
C1499      N1501   1.157       .  T
C1500      N1502   1.157       .  T
C1505      C1506   1.417       .  A
C1505      C1510   1.421       .  A
C1506      C1507   1.415       .  A
C1506      C1511   1.449       .  S
C1507      C1508   1.414       .  A
C1507      C1514   1.451       .  S
C1508      C1509   1.410       .  A
C1509      C1510   1.416       .  A
C1509      C1512   1.451       .  S
C1510      C1513   1.451       .  S
C1511      N1518   1.157       .  T
C1512      N1517   1.157       .  T
C1513      N1515   1.157       .  T
C1514      N1516   1.157       .  T
C1519      C1520   1.404       .  A
C1519      C1524   1.413       .  A
C1520      C1521   1.410       .  A
C1520      C1525   1.451       .  S
C1521      C1522   1.420       .  A
C1521      C1528   1.450       .  S
C1522      C1523   1.414       .  A
C1523      C1524   1.412       .  A
C1523      C1526   1.450       .  S
C1524      C1527   1.452       .  S
C1525      N1532   1.157       .  T
C1526      N1531   1.157       .  T
C1527      N1529   1.157       .  T
C1528      N1530   1.157       .  T
C1533      C1534   1.416       .  A
C1533      C1538   1.411       .  A
C1534      C1535   1.411   1_455  A
C1534      C1539   1.451       .  S
C1535      C1536   1.410       .  A
C1535      C1542   1.452       .  S
C1536      C1537   1.416       .  A
C1537      C1538   1.411   1_655  A
C1537      C1540   1.449       .  S
C1538      C1541   1.452       .  S
C1539      N1546   1.157       .  T
C1540      N1545   1.156       .  T
C1541      N1543   1.158       .  T
C1542      N1544   1.157       .  T
C1547      C1548   1.408       .  A
C1547      C1552   1.407       .  A
C1548      C1549   1.417       .  A
C1548      C1553   1.453       .  S
C1549      C1550   1.428       .  A
C1549      C1556   1.451       .  S
C1550      C1551   1.427       .  A
C1551      C1552   1.417       .  A
C1551      C1554   1.450       .  S
C1552      C1555   1.452       .  S
C1553      N1560   1.158       .  T
C1554      N1559   1.157       .  T
C1555      N1557   1.157       .  T
C1556      N1558   1.158       .  T
C1561      C1562   1.418       .  A
C1561      C1566   1.422       .  A
C1562      C1563   1.419       .  A
C1562      C1567   1.450       .  S
C1563      C1564   1.417       .  A
C1563      C1570   1.452       .  S
C1564      C1565   1.409       .  A
C1565      C1566   1.419       .  A
C1565      C1568   1.449       .  S
C1566      C1569   1.450       .  S
C1567      N1574   1.157       .  T
C1568      N1573   1.157       .  T
C1569      N1571   1.157       .  T
C1570      N1572   1.157       .  T
C1575      C1576   1.418       .  A
C1575      C1580   1.413       .  A
C1576      C1577   1.412       .  A
C1576      C1581   1.452       .  S
C1577      C1578   1.411       .  A
C1577      C1584   1.450       .  S
C1578      C1579   1.419       .  A
C1579      C1580   1.420       .  A
C1579      C1582   1.451       .  S
C1580      C1583   1.448       .  S
C1581      N1588   1.157       .  T
C1582      N1587   1.157       .  T
C1583      N1585   1.157       .  T
C1584      N1586   1.156       .  T
C1589      C1590   1.410       .  A
C1589      C1594   1.413       .  A
C1590      C1591   1.416       .  A
C1590      C1595   1.451       .  S
C1591      C1592   1.426       .  A
C1591      C1598   1.452       .  S
C1592      C1593   1.429       .  A
C1593      C1594   1.426       .  A
C1593      C1596   1.450       .  S
C1594      C1597   1.450       .  S
C1595      N1602   1.157       .  T
C1596      N1601   1.157       .  T
C1597      N1599   1.157       .  T
C1598      N1600   1.157       .  T
C1603      C1604   1.418       .  A
C1603      C1608   1.419       .  A
C1604      C1605   1.408       .  A
C1604      C1609   1.449       .  S
C1605      C1606   1.411       .  A
C1605      C1612   1.455       .  S
C1606      C1607   1.409       .  A
C1607      C1608   1.411       .  A
C1607      C1610   1.452       .  S
C1608      C1611   1.452       .  S
C1609      N1616   1.156       .  T
C1610      N1615   1.157       .  T
C1611      N1613   1.157       .  T
C1612      N1614   1.157       .  T
C1617      C1618   1.412       .  A
C1617      C1622   1.418       .  A
C1618      C1619   1.414       .  A
C1618      C1623   1.450       .  S
C1619      C1620   1.417       .  A
C1619      C1626   1.451       .  S
C1620      C1621   1.411       .  A
C1621      C1622   1.409       .  A
C1621      C1624   1.450       .  S
C1622      C1625   1.454       .  S
C1623      N1630   1.157       .  T
C1624      N1629   1.156       .  T
C1625      N1627   1.158       .  T
C1626      N1628   1.157       .  T
C1631      C1632   1.411       .  A
C1631      C1636   1.425       .  A
C1632      C1633   1.418   1_565  A
C1632      C1637   1.448       .  S
C1633      C1634   1.420       .  A
C1633      C1640   1.450       .  S
C1634      C1635   1.407       .  A
C1635      C1636   1.420   1_545  A
C1635      C1638   1.448       .  S
C1636      C1639   1.450       .  S
C1637      N1644   1.157       .  T
C1638      N1643   1.157       .  T
C1639      N1641   1.157       .  T
C1640      N1642   1.157       .  T
C1645      C1646   1.409   1_455  A
C1645      C1650   1.418       .  A
C1646      C1647   1.411       .  A
C1646      C1651   1.453   1_655  S
C1647      C1648   1.419       .  A
C1647      C1654   1.451       .  S
C1648      C1649   1.407       .  A
C1649      C1650   1.411   1_655  A
C1649      C1652   1.450       .  S
C1650      C1653   1.450       .  S
C1651      N1658   1.158       .  T
C1652      N1657   1.157       .  T
C1653      N1655   1.157       .  T
C1654      N1656   1.157       .  T
C1659      C1660   1.415       .  A
C1659      C1664   1.416       .  A
C1660      C1661   1.411       .  A
C1660      C1665   1.452       .  S
C1661      C1662   1.421       .  A
C1661      C1668   1.453       .  S
C1662      C1663   1.418       .  A
C1663      C1664   1.416       .  A
C1663      C1666   1.451       .  S
C1664      C1667   1.451       .  S
C1665      N1672   1.157       .  T
C1666      N1671   1.157       .  T
C1667      N1669   1.157       .  T
C1668      N1670   1.157       .  T
C1673      C1674   1.417       .  A
C1673      C1678   1.412       .  A
C1674      C1675   1.421       .  A
C1674      C1679   1.451       .  S
C1675      C1676   1.416       .  A
C1675      C1682   1.450       .  S
C1676      C1677   1.419       .  A
C1677      C1678   1.420       .  A
C1677      C1680   1.449       .  S
C1678      C1681   1.450       .  S
C1679      N1686   1.157       .  T
C1680      N1685   1.157       .  T
C1681      N1683   1.157       .  T
C1682      N1684   1.157       .  T
C1687      C1688   1.415       .  A
C1687      C1692   1.416       .  A
C1688      C1689   1.419       .  A
C1688      C1693   1.449       .  S
C1689      C1690   1.419       .  A
C1689      C1696   1.451       .  S
C1690      C1691   1.415       .  A
C1691      C1692   1.412       .  A
C1691      C1694   1.450       .  S
C1692      C1695   1.453       .  S
C1693      N1700   1.157       .  T
C1694      N1699   1.157       .  T
C1695      N1697   1.157       .  T
C1696      N1698   1.157       .  T
C1701      C1702   1.416       .  A
C1701      C1706   1.418       .  A
C1702      C1703   1.412       .  A
C1702      C1707   1.449       .  S
C1703      C1704   1.411       .  A
C1703      C1710   1.452       .  S
C1704      C1705   1.409       .  A
C1705      C1706   1.412       .  A
C1705      C1708   1.452       .  S
C1706      C1709   1.451       .  S
C1707      N1714   1.157       .  T
C1708      N1713   1.157       .  T
C1709      N1711   1.157       .  T
C1710      N1712   1.157       .  T
C1715      C1716   1.416       .  A
C1715      C1720   1.415       .  A
C1716      C1717   1.416   1_545  A
C1716      C1721   1.450       .  S
C1717      C1718   1.412       .  A
C1717      C1724   1.451       .  S
C1718      C1719   1.411       .  A
C1719      C1720   1.414   1_565  A
C1719      C1722   1.451       .  S
C1720      C1723   1.451       .  S
C1721      N1728   1.157       .  T
C1722      N1727   1.157       .  T
C1723      N1725   1.157       .  T
C1724      N1726   1.157       .  T
