geometry optimzed in LAMMPS
_audit_creation_date              2020-12-01 
_audit_creation_method            'lammps2cif' 
_symmetry_space_group_name_H-M    'P1' 
_symmetry_Int_Tables_number       1 
_symmetry_cell_setting            triclinic 
loop_ 
_symmetry_equiv_pos_as_xyz 
  x,y,z 
_cell_length_a                    27.81037639 
_cell_length_b                    46.042650074757795 
_cell_length_c                    30.47798241156796 
_cell_angle_alpha                 89.98225802887629 
_cell_angle_beta                  108.35691628987516 
_cell_angle_gamma                 89.87034585830988 
loop_ 
_atom_site_label 
_atom_site_type_symbol 
_atom_site_fract_x 
_atom_site_fract_y 
_atom_site_fract_z 
_atom_site_charge 
O1          O  0.62019591  0.56108710  0.75402269    -0.82300
C2          C  0.73715407  0.60552172  0.65107251     0.97100
O3          O  0.69854742  0.61870420  0.65508267    -0.71400
O4          O  0.62721189  0.58009698  0.63407829    -0.75000
Al5        Al  0.65023817  0.60567403  0.68441590     1.49000
C6          C  0.61172952  0.55450089  0.63444196     0.92400
O7          O  0.71790013  0.52359915  0.71060293    -0.81200
O8          O  0.75359747  0.58628294  0.80451608    -0.74700
Al9        Al  0.67026035  0.54510841  0.73172338     1.90100
O10         O  0.78325957  0.54931292  0.74893835    -0.73800
O11         O  0.75013240  0.62856026  0.74532804    -0.73700
O12         O  0.76400929  0.58964256  0.68361170    -0.79300
O13         O  0.66904320  0.63568173  0.73083182    -0.77500
O14         O  0.69208779  0.57947553  0.71988237    -1.13700
O15         O  0.59228838  0.59632918  0.70428218    -0.72900
C16         C  0.58521307  0.57812159  0.73279330     0.97900
C17         C  0.76496757  0.52601697  0.72939462     0.94300
Al18       Al  0.75747500  0.58783158  0.74363404     1.55600
O19         O  0.62294762  0.53983969  0.67135009    -0.77500
C20         C  0.71411822  0.64490401  0.74600698     0.98400
C21         C  0.73696226  0.56479696  0.82131065     0.93300
O22         O  0.71256965  0.54460509  0.79537192    -0.82800
O23         O  0.88427746  0.55886240  0.22283354    -0.82300
C24         C  0.77703778  0.60459471  0.33375846     0.97100
O25         O  0.81535057  0.61687032  0.32790572    -0.71400
O26         O  0.88518587  0.57764968  0.34336842    -0.75000
Al27       Al  0.85960308  0.60395724  0.29472895     1.49000
C28         C  0.89769420  0.55145228  0.34267657     0.92400
O29         O  0.78832893  0.52255902  0.26912886    -0.81200
O30         O  0.74958060  0.58610997  0.17723220    -0.74700
Al31       Al  0.83483733  0.54366640  0.24663514     1.90100
O32         O  0.72229364  0.54945360  0.23629931    -0.73800
O33         O  0.75826475  0.62852613  0.23826813    -0.73700
O34         O  0.74734174  0.58959319  0.30169980    -0.79300
O35         O  0.83904476  0.63513894  0.25062874    -0.77500
O36         O  0.81525816  0.57840888  0.26033364    -1.13700
O37         O  0.91407949  0.59469823  0.27056837    -0.72900
C38         C  0.91957620  0.57619716  0.24186703     0.97900
C39         C  0.74113308  0.52613013  0.25566028     0.94300
Al40       Al  0.74974966  0.58770193  0.23986319     1.55600
O41         O  0.88346713  0.53697593  0.30572747    -0.77500
C42         C  0.79436652  0.64510757  0.23888606     0.98400
C43         C  0.76597356  0.56492052  0.15935738     0.93300
O44         O  0.79044329  0.54432186  0.18424370    -0.82800
O45         O  0.31763274  0.44924598  0.18716390    -0.82300
C46         C  0.28521730  0.39663959  0.34099373     0.97100
O47         O  0.25518513  0.39396617  0.30015763    -0.71400
O48         O  0.22422712  0.44113856  0.25318310    -0.75000
Al49       Al  0.25894479  0.40830857  0.24174210     1.49000
C50         C  0.23027017  0.46775700  0.24819887     0.92400
O51         O  0.35426089  0.47297718  0.31252407    -0.81200
O52         O  0.41351828  0.40322166  0.27109477    -0.74700
Al53       Al  0.33510291  0.45909621  0.25018486     1.90100
O54         O  0.40369385  0.43616443  0.34161818    -0.73800
O55         O  0.34574866  0.36563847  0.28778508    -0.73700
O56         O  0.33104145  0.40340346  0.34902971    -0.79300
O57         O  0.28175992  0.37211617  0.22600443    -0.77500
O58         O  0.32074607  0.42358113  0.26617666    -1.13700
O59         O  0.25276538  0.42023634  0.17981637    -0.72900
C60         C  0.28102572  0.43449329  0.16218238     0.97900
C61         C  0.38847447  0.46147323  0.34555425     0.94300
Al62       Al  0.36915640  0.40368074  0.30819939     1.55600
O63         O  0.27038365  0.47660321  0.24197373    -0.77500
C64         C  0.31071181  0.35521053  0.25474742     0.98400
C65         C  0.42950797  0.42677128  0.25904685     0.93300
O66         O  0.40357646  0.44987739  0.25438493    -0.82800
O67         O  0.19168306  0.45083007  0.79267341    -0.82300
C68         C  0.21529458  0.39123959  0.64080090     0.97100
O69         O  0.24744276  0.39077063  0.68107924    -0.71400
O70         O  0.28321681  0.43795915  0.72685693    -0.75000
Al71       Al  0.24641432  0.40628123  0.73969534     1.49000
C72         C  0.27894286  0.46482224  0.73102672     0.92400
O73         O  0.15364930  0.47075658  0.66638916    -0.81200
O74         O  0.09271886  0.40512253  0.71627559    -0.74700
Al75       Al  0.17353907  0.45888107  0.72933590     1.90100
O76         O  0.10080459  0.43476256  0.64138559    -0.73800
O77         O  0.15507150  0.36429434  0.69983663    -0.73700
O78         O  0.16958667  0.39811167  0.63422202    -0.79300
O79         O  0.22315517  0.37095509  0.75766326    -0.77500
O80         O  0.18520940  0.42233964  0.71560350    -1.13700
O81         O  0.25380087  0.41944546  0.80149344    -0.72900
C82         C  0.22685411  0.43546300  0.81842195     0.97900
C83         C  0.11594008  0.45993820  0.63625404     0.94300
Al84       Al  0.13420239  0.40225550  0.67675257     1.55600
O85         O  0.23865322  0.47485951  0.73535336    -0.77500
C86         C  0.19079306  0.35407084  0.73248264     0.98400
C87         C  0.07889577  0.42959079  0.72721161     0.93300
O88         O  0.10525299  0.45200912  0.72748541    -0.82800
O89         O  0.69393881  0.94449140  0.32732844    -0.82300
C90         C  0.71338498  0.89951570  0.16342799     0.97100
O91         O  0.74590250  0.89561704  0.20292130    -0.71400
O92         O  0.78196350  0.94096365  0.25372249    -0.75000
Al93       Al  0.74771987  0.90749751  0.26418767     1.49000
C94         C  0.77818917  0.96691798  0.26484976     0.92400
O95         O  0.65273326  0.97505885  0.20573053    -0.81200
O96         O  0.59507972  0.90356866  0.24462298    -0.74700
Al97       Al  0.67452181  0.95811862  0.26633035     1.90100
O98         O  0.60019216  0.93965648  0.17545303    -0.73800
O99         O  0.65740033  0.86657582  0.21900405    -0.73700
O100        O  0.66835628  0.90654964  0.15925343    -0.79300
O101        O  0.72534787  0.87075213  0.27817423    -0.77500
O102        O  0.68609466  0.92358997  0.24499746    -1.13700
O103        O  0.75906257  0.91667650  0.32825472    -0.72900
C104        C  0.73091575  0.92865432  0.34857846     0.97900
C105        C  0.61481065  0.96542883  0.17415419     0.94300
Al106      Al  0.63481019  0.90551478  0.20357532     1.55600
O107        O  0.73950050  0.97492395  0.27453089    -0.77500
C108        C  0.69352052  0.85502368  0.24989716     0.98400
C109        C  0.58102764  0.92658543  0.25996796     0.93300
O110        O  0.60674528  0.94962972  0.26430433    -0.82800
O111        O  0.81899428  0.94209238  0.70619932    -0.82300
C112        C  0.80509343  0.89586435  0.87242710     0.97100
O113        O  0.77006817  0.89509663  0.83395239    -0.71400
O114        O  0.73642632  0.94266478  0.78810447    -0.75000
Al115      Al  0.76550995  0.90835209  0.77279492     1.49000
C116        C  0.73887897  0.96787133  0.77322455     0.92400
O117        O  0.86322593  0.97340877  0.82713964    -0.81200
O118        O  0.91971557  0.90253001  0.78610184    -0.74700
Al119      Al  0.84002697  0.95663331  0.76687056     1.90100
O120        O  0.91387579  0.93688250  0.85810824    -0.73800
O121        O  0.85657347  0.86477892  0.80781800    -0.73700
O122        O  0.84977958  0.90153618  0.87413131    -0.79300
O123        O  0.78324410  0.87165148  0.75521358    -0.77500
O124        O  0.82843877  0.92241488  0.78911574    -1.13700
O125        O  0.75031823  0.91885093  0.70837586    -0.72900
C126        C  0.77889302  0.92828282  0.68631631     0.97900
C127        C  0.89919204  0.96276193  0.85989725     0.94300
Al128      Al  0.88037769  0.90299895  0.82781451     1.55600
O129        O  0.77513660  0.97426287  0.75870655    -0.77500
C130        C  0.81764196  0.85486048  0.77803554     0.98400
C131        C  0.93392623  0.92584768  0.77208129     0.93300
O132        O  0.90764909  0.94857992  0.76846316    -0.82800
O133        O  0.11926448  0.05528067  0.28033653    -0.82300
C134        C  0.22619628  0.10139760  0.16997830     0.97100
O135        O  0.18689614  0.11327138  0.17477362    -0.71400
O136        O  0.11629090  0.07532412  0.16361513    -0.75000
Al137      Al  0.14406001  0.10201103  0.21057081     1.49000
C138        C  0.10808481  0.04851234  0.16284953     0.92400
O139        O  0.22124132  0.02105764  0.23961586    -0.81200
O140        O  0.25362395  0.08677339  0.32706527    -0.74700
Al141      Al  0.17185068  0.04157350  0.25925336     1.90100
O142        O  0.28451113  0.04948445  0.27222485    -0.73800
O143        O  0.24524995  0.12744871  0.26315459    -0.73700
O144        O  0.25669176  0.08735497  0.20315265    -0.79300
O145        O  0.16538547  0.13421342  0.25255628    -0.77500
O146        O  0.18933077  0.07674031  0.24492432    -1.13700
O147        O  0.09206170  0.09396676  0.23770911    -0.72900
C148        C  0.08609642  0.07448741  0.26470133     0.97900
C149        C  0.26803934  0.02564566  0.25393490     0.94300
Al150      Al  0.25435016  0.08691649  0.26493972     1.55600
O151        O  0.12575594  0.03333600  0.19891881    -0.77500
C152        C  0.20934540  0.14448503  0.26100384     0.98400
C153        C  0.23887301  0.06557850  0.34621531     0.93300
O154        O  0.21474268  0.04433616  0.32272590    -0.82800
O155        O  0.39898299  0.05418538  0.75620065    -0.82300
C156        C  0.28415324  0.09867164  0.85933767     0.97100
O157        O  0.32257478  0.11180070  0.85460770    -0.71400
O158        O  0.39897262  0.07742264  0.86733040    -0.75000
Al159      Al  0.36700048  0.10238094  0.81889132     1.49000
C160        C  0.40726838  0.05062946  0.87134871     0.92400
O161        O  0.29623606  0.01925286  0.79451266    -0.81200
O162        O  0.26143464  0.08386207  0.70453095    -0.74700
Al163      Al  0.34546373  0.04038256  0.77537040     1.90100
O164        O  0.23155108  0.04516715  0.75671071    -0.73800
O165        O  0.26263898  0.12452882  0.76680546    -0.73700
O166        O  0.25567372  0.08332586  0.82675660    -0.79300
O167        O  0.34125615  0.13324170  0.77477072    -0.77500
O168        O  0.32475453  0.07533266  0.78665408    -1.13700
O169        O  0.41974477  0.09600248  0.79134565    -0.72900
C170        C  0.42894221  0.07522520  0.76801740     0.97900
C171        C  0.24930641  0.02194679  0.77662332     0.94300
Al172      Al  0.25876086  0.08349511  0.76549457     1.55600
O173        O  0.38974067  0.03384469  0.83722824    -0.77500
C174        C  0.29635556  0.14227088  0.76571176     0.98400
C175        C  0.27943112  0.06342339  0.68646013     0.93300
O176        O  0.30453419  0.04238899  0.71041064    -0.82800
C177        C  0.24794821  0.06585892  0.39660757    -0.20300
C178        C  0.26100497  0.04030185  0.42326165     0.35900
C179        C  0.26483180  0.04101588  0.47031141    -0.26300
C180        C  0.25436879  0.06649495  0.49101408     0.02300
C181        C  0.24111696  0.09207296  0.46416138     0.27100
C182        C  0.23904568  0.09159010  0.41746575    -0.25400
N183        N  0.27047050  0.01376440  0.40247765    -0.82800
H184        H  0.27612095  0.02155373  0.49102495     0.12900
C185        C  0.25862574  0.06605428  0.54099888     0.02300
N186        N  0.22856650  0.11819862  0.48404168    -0.81400
H187        H  0.22815709  0.11106392  0.39666571     0.17800
C188        C  0.28892287  0.08686960  0.57075501    -0.26200
C189        C  0.29527967  0.08663242  0.61832275     0.35800
C190        C  0.27213182  0.06459876  0.63665463    -0.20300
C191        C  0.24227997  0.04361650  0.60738358    -0.25500
C192        C  0.23441894  0.04442746  0.55949832     0.27200
H193        H  0.30828268  0.10313366  0.55690466     0.12900
N194        N  0.32675529  0.10796544  0.64839689    -0.82800
H195        H  0.22438923  0.02690252  0.62187823     0.17800
N196        N  0.20168182  0.02354972  0.52955891    -0.81400
H197        H  0.34256114  0.12197471  0.62969212     0.33400
H198        H  0.30351398  0.12077004  0.66168529     0.37900
H199        H  0.18707882  0.00912222  0.54862306     0.33400
H200        H  0.17080024  0.03487320  0.50759559     0.30100
H201        H  0.21971299  0.13500279  0.45969506     0.33400
H202        H  0.19575871  0.11409859  0.49278896     0.30100
H203        H  0.30250678  0.01697293  0.39211325     0.37900
H204        H  0.27926840  0.99691049  0.42673209     0.33400
C205        C  0.27359334  0.10060299  0.90414803    -0.20300
C206        C  0.30015638  0.12008581  0.93947164     0.35900
C207        C  0.29262961  0.11883114  0.98284708    -0.26300
C208        C  0.25863203  0.09907126  0.99157462     0.02300
C209        C  0.23127472  0.08005961  0.95647463     0.27100
C210        C  0.23892960  0.08104827  0.91307529    -0.25400
N211        N  0.33460864  0.14112187  0.93143637    -0.82800
H212        H  0.31289790  0.13363616  0.00998236     0.12900
C213        C  0.25085358  0.09948389  0.03733478     0.02300
N214        N  0.19631277  0.05966519  0.96528516    -0.81400
H215        H  0.21845185  0.06600926  0.88647450     0.17800
C216        C  0.20521374  0.11030463  0.04081110    -0.26200
C217        C  0.19695123  0.11253075  0.08380733     0.35800
C218        C  0.23525014  0.10313832  0.12441909    -0.20300
C219        C  0.28140601  0.09283674  0.12057365    -0.25500
C220        C  0.28938987  0.09064343  0.07741245     0.27200
H221        H  0.17614002  0.11744427  0.00973700     0.12900
N222        N  0.14960086  0.12402919  0.08591270    -0.82800
H223        H  0.31129619  0.08620831  0.15129031     0.17800
N224        N  0.33622714  0.07923736  0.07394763    -0.81400
H225        H  0.12477867  0.12810718  0.05274233     0.33400
H226        H  0.15716471  0.14418980  0.10241061     0.37900
H227        H  0.36068111  0.07365452  0.10663433     0.33400
H228        H  0.32791874  0.05996772  0.05492359     0.30100
H229        H  0.17910671  0.04725097  0.93580646     0.33400
H230        H  0.21720545  0.04522615  0.99067883     0.30100
H231        H  0.31321179  0.15586368  0.90684080     0.37900
H232        H  0.35188146  0.15311443  0.96136347     0.33400
C233        C  0.92723860  0.97995952  0.90078325    -0.20300
C234        C  0.90384729  0.99725426  0.92699061     0.35900
C235        C  0.93398110  0.00883500  0.96932257    -0.26300
C236        C  0.98602431  0.00293197  0.98650835     0.02300
C237        C  0.00942543  0.98638059  0.96028797     0.27100
C238        C  0.97990549  0.97527425  0.91763212    -0.25400
N239        N  0.85016754  0.00268672  0.91341269    -0.82800
H240        H  0.91638345  0.02187685  0.98967756     0.12900
C241        C  0.01619631  0.01458313  0.03179672     0.02300
N242        N  0.06285896  0.98030885  0.97771106    -0.81400
H243        H  0.99800497  0.96208101  0.89784171     0.17800
C244        C  0.02486506  0.99741597  0.07157166    -0.26200
C245        C  0.05458136  0.00775975  0.11513817     0.35800
C246        C  0.07689110  0.03559886  0.11838061    -0.20300
C247        C  0.06796315  0.05248631  0.07799840    -0.25500
C248        C  0.03773567  0.04232566  0.03491682     0.27200
H249        H  0.00798926  0.97601511  0.06855187     0.12900
N250        N  0.06140659  0.99029902  0.15577233    -0.82800
H251        H  0.08469507  0.07384673  0.07984285     0.17800
N252        N  0.02845386  0.06013910  0.99429158    -0.81400
H253        H  0.04334564  0.97024783  0.14702940     0.33400
H254        H  0.04318768  0.00092999  0.17644996     0.37900
H255        H  0.04636003  0.08025720  0.00266746     0.33400
H256        H  0.04507808  0.04991894  0.97202945     0.30100
H257        H  0.07399145  0.96725571  0.95452577     0.33400
H258        H  0.08213104  0.99997436  0.97976829     0.30100
H259        H  0.83046770  0.99246904  0.88261942     0.37900
H260        H  0.83659178  0.99361902  0.93868363     0.33400
C261        C  0.69823859  0.98957233  0.77199653    -0.20300
C262        C  0.69441738  0.01689880  0.74944219     0.35900
C263        C  0.65410270  0.03589172  0.74832456    -0.26300
C264        C  0.61714382  0.02811579  0.76847658     0.02300
C265        C  0.62073057  0.00105303  0.79092496     0.27100
C266        C  0.66118956  0.98222290  0.79266347    -0.25400
N267        N  0.73056480  0.02514917  0.72684874    -0.82800
H268        H  0.65064839  0.05655484  0.73055879     0.12900
C269        C  0.57232253  0.04714228  0.76289261     0.02300
N270        N  0.58218219  0.99237141  0.81050350    -0.81400
H271        H  0.66328036  0.96143842  0.80983769     0.17800
C272        C  0.52946988  0.04323054  0.72410785    -0.26200
C273        C  0.48265457  0.05587421  0.72192502     0.35800
C274        C  0.47855270  0.07247955  0.75960184    -0.20300
C275        C  0.52285764  0.07914791  0.79587110    -0.25500
C276        C  0.56979693  0.06647804  0.79800011     0.27200
H277        H  0.53189212  0.02885977  0.69672274     0.12900
N278        N  0.43845154  0.05047065  0.68292005    -0.82800
H279        H  0.52005344  0.09195109  0.82479676     0.17800
N280        N  0.61439048  0.07231891  0.83639559    -0.81400
H281        H  0.44766437  0.03766660  0.65837224     0.33400
H282        H  0.42594143  0.07046318  0.66711095     0.37900
H283        H  0.60621878  0.08720703  0.85898135     0.33400
H284        H  0.62535574  0.05305977  0.85503185     0.30100
H285        H  0.58951498  0.97149988  0.82459319     0.33400
H286        H  0.58392738  0.00633529  0.83797516     0.30100
H287        H  0.72518578  0.01147784  0.69832024     0.37900
H288        H  0.72338595  0.04624590  0.71365122     0.33400
C289        C  0.98370028  0.92851743  0.76409733    -0.20300
C290        C  0.98977809  0.94877594  0.73144191     0.35900
C291        C  0.03857725  0.95779798  0.73340047    -0.26300
C292        C  0.08187518  0.94683760  0.76690535     0.02300
C293        C  0.07612942  0.92488915  0.79729802     0.27100
C294        C  0.02699949  0.91588464  0.79554558    -0.25400
N295        N  0.94607268  0.96117187  0.69771853    -0.82800
H296        H  0.04269658  0.97466709  0.71005739     0.12900
C297        C  0.13172390  0.96087725  0.77183051     0.02300
N298        N  0.12006501  0.91257391  0.83071516    -0.81400
H299        H  0.02249844  0.90048367  0.82084863     0.17800
C300        C  0.15875476  0.97410777  0.81400255    -0.26200
C301        C  0.20004696  0.99264434  0.81726561     0.35800
C302        C  0.21420502  0.99815727  0.77758159    -0.20300
C303        C  0.18916073  0.98379209  0.73619377    -0.25500
C304        C  0.14854059  0.96488368  0.73305965     0.27200
H305        H  0.14574358  0.97136767  0.84371984     0.12900
N306        N  0.22542918  0.00741608  0.85976680    -0.82800
H307        H  0.20028188  0.98814968  0.70579093     0.17800
N308        N  0.12306451  0.95048499  0.69022037    -0.81400
H309        H  0.20975111  0.00155851  0.88549186     0.33400
H310        H  0.26306320  0.00029017  0.87093517     0.37900
H311        H  0.13971435  0.95589806  0.66497557     0.33400
H312        H  0.12829950  0.92814297  0.69594253     0.30100
H313        H  0.10941174  0.89688161  0.85065394     0.33400
H314        H  0.14095557  0.90178336  0.81253133     0.30100
H315        H  0.92715082  0.94435614  0.67615517     0.37900
H316        H  0.95691439  0.97604802  0.67668998     0.33400
C317        C  0.58603212  0.98346448  0.13471338    -0.20300
C318        C  0.53288024  0.98042444  0.11665451     0.35900
C319        C  0.50691402  0.99284546  0.07381173    -0.26300
C320        C  0.53283170  0.00833393  0.04883779     0.02300
C321        C  0.58567886  0.01290054  0.06806371     0.27100
C322        C  0.61167862  0.00046698  0.11109853    -0.25400
N323        N  0.50568451  0.96419573  0.14158229    -0.82800
H324        H  0.46628733  0.98998462  0.05928295     0.12900
C325        C  0.50299092  0.01929040  0.00286406     0.02300
N326        N  0.61409092  0.02958167  0.04487411    -0.81400
H327        H  0.65244183  0.00285932  0.12496760     0.17800
C328        C  0.47691834  0.04548921  0.00017016    -0.26200
C329        C  0.44500928  0.05574202  0.95781231     0.35800
C330        C  0.43880951  0.03943286  0.91696712    -0.20300
C331        C  0.46479058  0.01292163  0.91992107    -0.25500
C332        C  0.49710572  0.00273866  0.96262623     0.27200
H333        H  0.48087949  0.05789866  0.03133533     0.12900
N334        N  0.41824881  0.08250895  0.95678003    -0.82800
H335        H  0.46049973  0.00036634  0.88886455     0.17800
N336        N  0.52335137  0.97551944  0.96556045    -0.81400
H337        H  0.39610717  0.08048540  0.97869795     0.33400
H338        H  0.44484567  0.09891784  0.96981001     0.37900
H339        H  0.51450508  0.96584481  0.93294926     0.33400
H340        H  0.56217161  0.97993533  0.97601730     0.30100
H341        H  0.63968386  0.01548840  0.03691668     0.33400
H342        H  0.59090571  0.03805269  0.01357872     0.30100
H343        H  0.50975337  0.97508814  0.17265093     0.37900
H344        H  0.46692077  0.96385505  0.12343957     0.33400
C345        C  0.79389976  0.89019936  0.91625340    -0.20300
C346        C  0.83100389  0.89416254  0.96021221     0.35900
C347        C  0.81770175  0.88985592  0.00044154    -0.26300
C348        C  0.76823993  0.88249544  0.99800947     0.02300
C349        C  0.73182357  0.87728917  0.95473239     0.27100
C350        C  0.74502597  0.88108777  0.91426870    -0.25400
N351        N  0.88148867  0.90363857  0.96424634    -0.82800
H352        H  0.84523254  0.89415165  0.03391850     0.12900
C353        C  0.75332375  0.88517885  0.04022901     0.02300
N354        N  0.68122836  0.86896186  0.95219670    -0.81400
H355        H  0.71660294  0.87752843  0.88104822     0.17800
C356        C  0.71922507  0.90729116  0.04153890    -0.26200
C357        C  0.70616307  0.91259930  0.08128523     0.35800
C358        C  0.72756452  0.89529626  0.12116209    -0.20300
C359        C  0.76250111  0.87340427  0.12017594    -0.25500
C360        C  0.77559567  0.86813031  0.07990587     0.27200
H361        H  0.70337640  0.92103057  0.01151969     0.12900
N362        N  0.67283289  0.93653901  0.08051452    -0.82800
H363        H  0.77900002  0.86014295  0.15062507     0.17800
N364        N  0.81128852  0.84568336  0.07906506    -0.81400
H365        H  0.63895399  0.92875361  0.08393791     0.33400
H366        H  0.69024290  0.95040857  0.10807206     0.37900
H367        H  0.82434189  0.83526046  0.11114743     0.33400
H368        H  0.79200284  0.83005058  0.05514329     0.30100
H369        H  0.65879721  0.86619296  0.91779628     0.33400
H370        H  0.68348214  0.84869719  0.96822528     0.30100
H371        H  0.87899099  0.92521881  0.95300017     0.37900
H372        H  0.90438679  0.90381948  0.99882438     0.33400
C373        C  0.73923411  0.92316202  0.39770450    -0.20300
C374        C  0.70392070  0.90680689  0.41229289     0.35900
C375        C  0.70911848  0.90542003  0.45942569    -0.26300
C376        C  0.74864581  0.91990759  0.49208061     0.02300
C377        C  0.78440623  0.93571930  0.47768943     0.27100
C378        C  0.77954114  0.93701802  0.43043946    -0.25400
N379        N  0.66279483  0.89116747  0.38047134    -0.82800
H380        H  0.68192367  0.89312090  0.47066826     0.12900
C381        C  0.75162690  0.91921360  0.54129088     0.02300
N382        N  0.82465494  0.95095028  0.51108365    -0.81400
H383        H  0.80598580  0.94979734  0.41891392     0.17800
C384        C  0.79039948  0.90318169  0.57244481    -0.26200
C385        C  0.79824631  0.90478800  0.62016018     0.35800
C386        C  0.76648585  0.92271755  0.63662131    -0.20300
C387        C  0.72583017  0.93739530  0.60536639    -0.25500
C388        C  0.71825385  0.93596469  0.55756972     0.27200
H389        H  0.81539840  0.89006584  0.55949895     0.12900
N390        N  0.83805765  0.88818131  0.65197883    -0.82800
H391        H  0.70158739  0.95104272  0.61841227     0.17800
N392        N  0.67796763  0.95212807  0.52560119    -0.81400
H393        H  0.85668241  0.87531037  0.63409380     0.33400
H394        H  0.86500379  0.90271124  0.67180012     0.37900
H395        H  0.65680596  0.96327624  0.54315893     0.33400
H396        H  0.69446469  0.96789742  0.51024458     0.30100
H397        H  0.84769076  0.96153898  0.49485714     0.33400
H398        H  0.80817203  0.96714889  0.52573274     0.30100
H399        H  0.66394069  0.89209706  0.34665342     0.37900
H400        H  0.62893410  0.90107643  0.38062730     0.33400
C401        C  0.82000675  0.98778237  0.26693545    -0.20300
C402        C  0.82113704  0.01651143  0.28423955     0.35900
C403        C  0.86168444  0.03505509  0.28492571    -0.26300
C404        C  0.90165521  0.02535687  0.26999260     0.02300
C405        C  0.90138638  0.99669606  0.25380778     0.27100
C406        C  0.86055248  0.97834613  0.25211188    -0.25400
N407        N  0.78183579  0.02673165  0.30176050    -0.82800
H408        H  0.86268567  0.05700888  0.29797840     0.12900
C409        C  0.94496992  0.04477225  0.27276851     0.02300
N410        N  0.94330973  0.98613311  0.24019063    -0.81400
H411        H  0.86072092  0.95641014  0.23932893     0.17800
C412        C  0.98736174  0.04412118  0.31264871    -0.26200
C413        C  0.03331411  0.05703620  0.31303938     0.35800
C414        C  0.03662386  0.07087427  0.27272070    -0.20300
C415        C  0.99252429  0.07422120  0.23467885    -0.25500
C416        C  0.94680271  0.06093114  0.23404928     0.27200
H417        H  0.98542386  0.03198866  0.34251718     0.12900
N418        N  0.07738998  0.05479373  0.35322264    -0.82800
H419        H  0.99490807  0.08472580  0.20360574     0.17800
N420        N  0.90295782  0.06265404  0.19354631    -0.81400
H421        H  0.06874885  0.04378889  0.37979425     0.33400
H422        H  0.08783294  0.07586718  0.36518031     0.37900
H423        H  0.91053516  0.07552172  0.16822476     0.33400
H424        H  0.89532365  0.04180815  0.17957719     0.30100
H425        H  0.93801160  0.96433299  0.23030326     0.33400
H426        H  0.94398868  0.99773726  0.21091874     0.30100
H427        H  0.78483359  0.01501552  0.33191411     0.37900
H428        H  0.78762048  0.04852009  0.31163483     0.33400
C429        C  0.53124139  0.92874524  0.26744987    -0.20300
C430        C  0.52529417  0.94651726  0.30306630     0.35900
C431        C  0.47696269  0.95650340  0.30101126    -0.26300
C432        C  0.43448891  0.94944068  0.26343752     0.02300
C433        C  0.43965240  0.93007035  0.22941378     0.27100
C434        C  0.48808051  0.91951222  0.23209350    -0.25400
N435        N  0.56871697  0.95569479  0.34007345    -0.82800
H436        H  0.47307505  0.97144836  0.32717154     0.12900
C437        C  0.38720282  0.96620339  0.25651336     0.02300
N438        N  0.39618557  0.92278072  0.19082287    -0.81400
H439        H  0.49263650  0.90631820  0.20422340     0.17800
C440        C  0.37958612  0.99113424  0.22879479    -0.26200
C441        C  0.33884819  0.00995433  0.22547640     0.35800
C442        C  0.30484854  0.00354521  0.24999151    -0.20300
C443        C  0.31098442  0.97787425  0.27602145    -0.25500
C444        C  0.35231041  0.95915150  0.27978699     0.27200
H445        H  0.40661518  0.99641077  0.21100445     0.12900
N446        N  0.33241126  0.03596787  0.19819430    -0.82800
H447        H  0.28509692  0.97325604  0.29526936     0.17800
N448        N  0.36012341  0.93365616  0.30836668    -0.81400
H449        H  0.36091756  0.03770886  0.18271010     0.33400
H450        H  0.29818727  0.03406197  0.17133892     0.37900
H451        H  0.33141075  0.93173293  0.32356180     0.33400
H452        H  0.35704198  0.91561819  0.28683663     0.30100
H453        H  0.40646904  0.90875504  0.16829282     0.33400
H454        H  0.37111138  0.91131570  0.20369114     0.30100
H455        H  0.56994171  0.97839114  0.33983843     0.37900
H456        H  0.56384981  0.94912432  0.37123518     0.33400
C457        C  0.28147702  0.17352579  0.75661903    -0.20300
C458        C  0.31675405  0.19647828  0.76262225     0.35900
C459        C  0.29930363  0.22554222  0.75805462    -0.26300
C460        C  0.24763565  0.23222433  0.74862009     0.02300
C461        C  0.21248956  0.20942536  0.74209572     0.27100
C462        C  0.22957105  0.18055807  0.74546206    -0.25400
N463        N  0.37000181  0.19043975  0.77405342    -0.82800
H464        H  0.32621938  0.24315234  0.76268729     0.12900
C465        C  0.23052709  0.26310655  0.74604709     0.02300
N466        N  0.15957446  0.21569250  0.73324357    -0.81400
H467        H  0.20182928  0.16339542  0.74069571     0.17800
C468        C  0.19513431  0.27347915  0.70528729    -0.26200
C469        C  0.17833685  0.30252754  0.70114818     0.35800
C470        C  0.19825208  0.32200977  0.73853122    -0.20300
C471        C  0.23243566  0.31121489  0.77986518    -0.25500
C472        C  0.24829208  0.28197379  0.78414593     0.27200
H473        H  0.18109584  0.25885470  0.67621687     0.12900
N474        N  0.14301831  0.31245672  0.65830316    -0.82800
H475        H  0.24777363  0.32582953  0.80872700     0.17800
N476        N  0.28259598  0.27136653  0.82697761    -0.81400
H477        H  0.13453305  0.29584188  0.63367987     0.33400
H478        H  0.10911396  0.31744032  0.66464188     0.37900
H479        H  0.29226271  0.28796241  0.85159039     0.33400
H480        H  0.26336771  0.25566349  0.83976605     0.30100
H481        H  0.13856937  0.19651249  0.72917792     0.33400
H482        H  0.15577694  0.22607521  0.76248702     0.30100
H483        H  0.38217029  0.18192721  0.80757071     0.37900
H484        H  0.39030845  0.20966226  0.77521109     0.33400
C485        C  0.29941350  0.32344114  0.25315498    -0.20300
C486        C  0.31919662  0.30562961  0.29281470     0.35900
C487        C  0.29984798  0.27756486  0.29341160    -0.26300
C488        C  0.26263895  0.26610361  0.25498927     0.02300
C489        C  0.24413166  0.28315557  0.21472039     0.27100
C490        C  0.26215147  0.31177068  0.21441627    -0.25400
N491        N  0.35784117  0.31620434  0.33304943    -0.82800
H492        H  0.31441034  0.26422700  0.32408153     0.12900
C493        C  0.24750485  0.23524581  0.25685478     0.02300
N494        N  0.20737183  0.27133163  0.17435469    -0.81400
H495        H  0.24652249  0.32513396  0.18395088     0.17800
C496        C  0.19737676  0.22772980  0.25322486    -0.26200
C497        C  0.18332650  0.19840446  0.25610254     0.35800
C498        C  0.22061858  0.17631455  0.26365510    -0.20300
C499        C  0.27094229  0.18444811  0.26865941    -0.25500
C500        C  0.28441281  0.21329010  0.26439222     0.27200
H501        H  0.16918462  0.24477328  0.24788216     0.12900
N502        N  0.13165926  0.19122036  0.25127146    -0.82800
H503        H  0.30024246  0.16804944  0.27428740     0.17800
N504        N  0.33558121  0.22039716  0.26690954    -0.81400
H505        H  0.10995161  0.21010009  0.24858595     0.33400
H506        H  0.11678777  0.18026973  0.21988131     0.37900
H507        H  0.35838136  0.20179986  0.27283990     0.33400
H508        H  0.33471498  0.22845591  0.23458858     0.30100
H509        H  0.19756230  0.28666900  0.14767301     0.33400
H510        H  0.22454013  0.25402973  0.16272109     0.30100
H511        H  0.39099750  0.31854652  0.32415698     0.37900
H512        H  0.36602071  0.30095687  0.35984463     0.33400
C513        C  0.23567837  0.43585130  0.86911070    -0.20300
C514        C  0.21391396  0.45742140  0.89017102     0.35900
C515        C  0.22206424  0.45654359  0.93788608    -0.26300
C516        C  0.25117589  0.43446937  0.96536696     0.02300
C517        C  0.27251940  0.41267501  0.94469749     0.27100
C518        C  0.26466815  0.41362631  0.89681210    -0.25400
N519        N  0.18356684  0.48038128  0.86349687    -0.82800
H520        H  0.20519067  0.47316446  0.95359895     0.12900
C521        C  0.25880252  0.43457707  0.01575028     0.02300
N522        N  0.30216247  0.38974364  0.97245277    -0.81400
H523        H  0.28088850  0.39674053  0.88105507     0.17800
C524        C  0.24112643  0.41117659  0.03577939    -0.26200
C525        C  0.24747086  0.41058572  0.08341595     0.35800
C526        C  0.27166062  0.43414165  0.11149071    -0.20300
C527        C  0.28899920  0.45761938  0.09111046    -0.25500
C528        C  0.28283058  0.45808712  0.04361203     0.27200
H529        H  0.22239577  0.39326686  0.01406935     0.12900
N530        N  0.23024120  0.38595449  0.10328723    -0.82800
H531        H  0.30751497  0.47575747  0.11235874     0.17800
N532        N  0.30111383  0.48225245  0.02354723    -0.81400
H533        H  0.21250306  0.37086245  0.07772694     0.33400
H534        H  0.26223150  0.37557754  0.12538079     0.37900
H535        H  0.31748241  0.49788083  0.04866564     0.33400
H536        H  0.32995845  0.47455118  0.01137665     0.30100
H537        H  0.31467625  0.37526442  0.95192442     0.33400
H538        H  0.33453303  0.39913986  0.99543162     0.30100
H539        H  0.14768641  0.47942973  0.86765990     0.37900
H540        H  0.20010821  0.50018867  0.87685220     0.33400
C541        C  0.23029377  0.38435501  0.59968001    -0.20300
C542        C  0.27687954  0.39364705  0.59533171     0.35900
C543        C  0.28450617  0.39184859  0.55199055    -0.26300
C544        C  0.24621483  0.38151416  0.51309882     0.02300
C545        C  0.20127171  0.37028575  0.51821820     0.27100
C546        C  0.19397399  0.37160703  0.56161580    -0.25400
N547        N  0.31489295  0.40642060  0.63391439    -0.82800
H548        H  0.31930916  0.40005403  0.54782043     0.12900
C549        C  0.25174228  0.38539204  0.46675114     0.02300
N550        N  0.16229188  0.35889963  0.47896008    -0.81400
H551        H  0.15853509  0.36401522  0.56521135     0.17800
C552        C  0.25160801  0.36113679  0.43878494    -0.26200
C553        C  0.25922688  0.36444322  0.39557682     0.35800
C554        C  0.26731591  0.39242003  0.38075532    -0.20300
C555        C  0.26574011  0.41667689  0.40788881    -0.25500
C556        C  0.25729104  0.41350261  0.45055364     0.27200
H557        H  0.24691976  0.33962998  0.45126992     0.12900
N558        N  0.26155828  0.33954057  0.36789190    -0.82800
H559        H  0.27227822  0.43809464  0.39611123     0.17800
N560        N  0.25493359  0.43862402  0.47785349    -0.81400
H561        H  0.25588919  0.32046089  0.38419454     0.33400
H562        H  0.23150171  0.34111024  0.33703328     0.37900
H563        H  0.26010866  0.45763035  0.46111106     0.33400
H564        H  0.21835508  0.43969334  0.48042702     0.30100
H565        H  0.13175668  0.35132908  0.48877190     0.33400
H566        H  0.14848297  0.37605047  0.45590073     0.30100
H567        H  0.30039453  0.42608131  0.64150943     0.37900
H568        H  0.34719370  0.41160175  0.62495979     0.33400
C569        C  0.78300044  0.67666012  0.23063953    -0.20300
C570        C  0.73334560  0.68597085  0.20605909     0.35900
C571        C  0.71904796  0.71496270  0.20870874    -0.26300
C572        C  0.75368118  0.73562095  0.23418234     0.02300
C573        C  0.80456424  0.72693662  0.25594723     0.27100
C574        C  0.81858283  0.69751100  0.25428218    -0.25400
N575        N  0.69672270  0.66582445  0.17898546    -0.82800
H576        H  0.67995921  0.72109897  0.19172916     0.12900
C577        C  0.73554720  0.76586811  0.23851088     0.02300
N578        N  0.84157728  0.74790954  0.28026789    -0.81400
H579        H  0.85674151  0.69063604  0.27333196     0.17800
C580        C  0.74629663  0.77875630  0.28245453    -0.26200
C581        C  0.73071334  0.80737323  0.28775241     0.35800
C582        C  0.70256629  0.82325814  0.24840446    -0.20300
C583        C  0.68950365  0.80982150  0.20484176    -0.25500
C584        C  0.70641059  0.78167253  0.19930874     0.27200
H585        H  0.76726630  0.76648607  0.31280101     0.12900
N586        N  0.74380877  0.82043463  0.33280055    -0.82800
H587        H  0.66870843  0.82206256  0.17436675     0.17800
N588        N  0.69563112  0.76954715  0.15375287    -0.81400
H589        H  0.76476210  0.80594570  0.35807481     0.33400
H590        H  0.71008628  0.82455503  0.34002646     0.37900
H591        H  0.67372697  0.78387721  0.12872850     0.33400
H592        H  0.73010246  0.76704467  0.14717432     0.30100
H593        H  0.87699826  0.73806174  0.29455062     0.33400
H594        H  0.84550841  0.76303090  0.25603555     0.30100
H595        H  0.66587292  0.66555243  0.19165038     0.37900
H596        H  0.68400357  0.67342837  0.14493680     0.33400
C597        C  0.93087709  0.53822955  0.38575150    -0.20300
C598        C  0.93527198  0.50782394  0.39230606     0.35900
C599        C  0.96786094  0.49681744  0.43403166    -0.26300
C600        C  0.99554623  0.51550220  0.46918524     0.02300
C601        C  0.99163795  0.54572217  0.46267135     0.27100
C602        C  0.95941223  0.55679404  0.42098048    -0.25400
N603        N  0.90629749  0.48826406  0.35715587    -0.82800
H604        H  0.97122475  0.47354615  0.43959104     0.12900
C605        C  0.02655606  0.50299208  0.51355427     0.02300
N606        N  0.01995567  0.56498401  0.49862693    -0.81400
H607        H  0.95665157  0.58011868  0.41605195     0.17800
C608        C  0.07935440  0.50642941  0.52809349    -0.26200
C609        C  0.10983978  0.49360084  0.56936388     0.35800
C610        C  0.08664369  0.47672040  0.59562644    -0.20300
C611        C  0.03371382  0.47401854  0.58147458    -0.25500
C612        C  0.00335073  0.48731863  0.54097980     0.27200
H613        H  0.09670910  0.51872899  0.50677330     0.12900
N614        N  0.16402733  0.49644957  0.58334921    -0.82800
H615        H  0.01599429  0.46139199  0.60217803     0.17800
N616        N  0.94906944  0.48492429  0.52736727    -0.81400
H617        H  0.17491420  0.50827342  0.55875157     0.33400
H618        H  0.17505938  0.50879315  0.61364488     0.37900
H619        H  0.93808550  0.47251927  0.55132096     0.33400
H620        H  0.93441608  0.50578879  0.52811475     0.30100
H621        H  0.01310605  0.58663714  0.48811556     0.33400
H622        H  0.00658766  0.56234328  0.52682752     0.30100
H623        H  0.86806915  0.49129730  0.35396877     0.37900
H624        H  0.91491178  0.46667108  0.36729344     0.33400
C625        C  0.70667909  0.50326597  0.26179493    -0.20300
C626        C  0.69305647  0.47967619  0.23095829     0.35900
C627        C  0.65213721  0.46180835  0.23155914    -0.26300
C628        C  0.62519700  0.46697254  0.26282348     0.02300
C629        C  0.64107148  0.48953037  0.29559035     0.27100
C630        C  0.68157418  0.50751213  0.29457703    -0.25400
N631        N  0.71898284  0.47500508  0.19754743    -0.82800
H632        H  0.63988221  0.44451110  0.20643680     0.12900
C633        C  0.57674532  0.45136465  0.25726396     0.02300
N634        N  0.61461934  0.49486350  0.32844960    -0.81400
H635        H  0.69231519  0.52567270  0.31820625     0.17800
C636        C  0.57200307  0.43290521  0.29237387    -0.26200
C637        C  0.52438267  0.42172890  0.29125950     0.35800
C638        C  0.48078049  0.42931811  0.25434616    -0.20300
C639        C  0.48624607  0.44630794  0.21796401    -0.25500
C640        C  0.53362933  0.45748066  0.21908133     0.27200
H641        H  0.60515527  0.42834598  0.32172855     0.12900
N642        N  0.51955867  0.40482016  0.32929094    -0.82800
H643        H  0.45270742  0.45252219  0.19002542     0.17800
N644        N  0.53764877  0.47639837  0.18284727    -0.81400
H645        H  0.55483143  0.40221019  0.35455453     0.33400
H646        H  0.50757206  0.38405952  0.31672872     0.37900
H647        H  0.50252988  0.47866014  0.15722855     0.33400
H648        H  0.54756525  0.49701987  0.19715020     0.30100
H649        H  0.63123749  0.51208737  0.35026561     0.33400
H650        H  0.57776269  0.50144612  0.31002968     0.30100
H651        H  0.75663359  0.46981821  0.21569494     0.37900
H652        H  0.70387563  0.45703926  0.17686579     0.33400
C653        C  0.96952298  0.57150109  0.23428855    -0.20300
C654        C  0.01573052  0.58019893  0.26731440     0.35900
C655        C  0.06153636  0.56700513  0.26712000    -0.26300
C656        C  0.06201054  0.54553359  0.23466471     0.02300
C657        C  0.01695062  0.53880529  0.19935596     0.27100
C658        C  0.97138909  0.55210267  0.19912281    -0.25400
N659        N  0.01578584  0.60072242  0.30285177    -0.82800
H660        H  0.09653763  0.57219889  0.29398502     0.12900
C661        C  0.10779522  0.52729355  0.24128826     0.02300
N662        N  0.01723252  0.51704657  0.16560886    -0.81400
H663        H  0.93652377  0.54553473  0.17321629     0.17800
C664        C  0.10976046  0.50017019  0.26258557    -0.26200
C665        C  0.15012341  0.48082626  0.26680519     0.35800
C666        C  0.18926590  0.48861615  0.24849135    -0.20300
C667        C  0.18796221  0.51634061  0.22853345    -0.25500
C668        C  0.14745578  0.53571024  0.22461171     0.27200
H669        H  0.07918565  0.49397776  0.27560062     0.12900
N670        N  0.15124833  0.45332796  0.28953884    -0.82800
H671        H  0.21783448  0.52261675  0.21468926     0.17800
N672        N  0.14603892  0.56366704  0.20326254    -0.81400
H673        H  0.11925786  0.45085671  0.30022266     0.33400
H674        H  0.18255742  0.45342366  0.31956179     0.37900
H675        H  0.17822206  0.56662629  0.19302818     0.33400
H676        H  0.11492341  0.56393907  0.17310078     0.30100
H677        H  0.98077200  0.51403268  0.14254748     0.33400
H678        H  0.03942195  0.52486251  0.14616353     0.30100
H679        H  0.00390914  0.62070297  0.28672257     0.37900
H680        H  0.05254647  0.60384698  0.32526288     0.33400
C681        C  0.80881182  0.82314943  0.77387227    -0.20300
C682        C  0.77881172  0.81042752  0.73227657     0.35900
C683        C  0.76296010  0.78147951  0.73200655    -0.26300
C684        C  0.77499591  0.76507125  0.77298099     0.02300
C685        C  0.80591287  0.77767170  0.81465111     0.27100
C686        C  0.82320634  0.80633952  0.81440182    -0.25400
N687        N  0.76410421  0.82691342  0.69025706    -0.82800
H688        H  0.74064865  0.77186847  0.69955869     0.12900
C689        C  0.75648510  0.73452001  0.77126630     0.02300
N690        N  0.81820852  0.76171684  0.85735413    -0.81400
H691        H  0.84531374  0.81622764  0.84670460     0.17800
C692        C  0.79128591  0.71238898  0.79087222    -0.26200
C693        C  0.77672237  0.68313705  0.78718574     0.35800
C694        C  0.72652591  0.67545959  0.76101335    -0.20300
C695        C  0.69088391  0.69760869  0.74350080    -0.25500
C696        C  0.70522355  0.72709336  0.74881996     0.27200
H697        H  0.83058784  0.71785033  0.80807306     0.12900
N698        N  0.81328791  0.66111822  0.80892162    -0.82800
H699        H  0.65233132  0.69192179  0.72385551     0.17800
N700        N  0.66817374  0.74948606  0.73072938    -0.81400
H701        H  0.80070557  0.65096254  0.83398531     0.33400
H702        H  0.84841283  0.67036263  0.82637622     0.37900
H703        H  0.63243314  0.74043746  0.71499726     0.33400
H704        H  0.66541562  0.76174065  0.75871335     0.30100
H705        H  0.84123822  0.77405409  0.88470396     0.33400
H706        H  0.78442055  0.75798399  0.86460939     0.30100
H707        H  0.72452496  0.82731628  0.67751614     0.37900
H708        H  0.77737397  0.81610129  0.66617245     0.33400
C709        C  0.57712127  0.54222727  0.59171928    -0.20300
C710        C  0.58400473  0.54694802  0.54836785     0.35900
C711        C  0.54835111  0.53570721  0.50846150    -0.26300
C712        C  0.50575005  0.52041524  0.51121390     0.02300
C713        C  0.49829230  0.51652207  0.55454813     0.27100
C714        C  0.53449859  0.52710320  0.59443129    -0.25400
N715        N  0.62738699  0.56271298  0.54518000    -0.82800
H716        H  0.55431728  0.53831705  0.47522218     0.12900
C717        C  0.47154015  0.50648483  0.46917316     0.02300
N718        N  0.45382357  0.50195518  0.55774950    -0.81400
H719        H  0.52874709  0.52424401  0.62773894     0.17800
C720        C  0.46401650  0.47647910  0.46999296    -0.26200
C721        C  0.43414916  0.46178261  0.43080194     0.35800
C722        C  0.41293186  0.47726989  0.38900912    -0.20300
C723        C  0.41890394  0.50750961  0.38847814    -0.25500
C724        C  0.44790083  0.52234711  0.42839653     0.27200
H725        H  0.48211510  0.46436091  0.50137764     0.12900
N726        N  0.42536945  0.43113677  0.43334782    -0.82800
H727        H  0.40228285  0.51941836  0.35660153     0.17800
N728        N  0.45390613  0.55331671  0.42765374    -0.81400
H729        H  0.44457037  0.42301356  0.46627359     0.33400
H730        H  0.38674815  0.42840617  0.42856742     0.37900
H731        H  0.43425333  0.56168194  0.39500920     0.33400
H732        H  0.43710149  0.56227750  0.45079712     0.30100
H733        H  0.45415390  0.50087714  0.59211660     0.33400
H734        H  0.42241775  0.51457912  0.54000713     0.30100
H735        H  0.65974879  0.55073246  0.56265298     0.37900
H736        H  0.62673304  0.56428918  0.51076978     0.33400
C737        C  0.74897216  0.60816885  0.60694720    -0.20300
C738        C  0.78062407  0.58797576  0.59403454     0.35900
C739        C  0.78568647  0.58964607  0.54965941    -0.26300
C740        C  0.75932180  0.61060688  0.51770339     0.02300
C741        C  0.72901729  0.63122533  0.53075152     0.27100
C742        C  0.72413688  0.62981901  0.57516803    -0.25400
N743        N  0.80610811  0.56522644  0.62508936    -0.82800
H744        H  0.80898915  0.57387505  0.53927163     0.12900
C745        C  0.76319486  0.61029600  0.47034758     0.02300
N746        N  0.70310408  0.65336724  0.49866375    -0.81400
H747        H  0.70003628  0.64548610  0.58466617     0.17800
C748        C  0.71985548  0.60478010  0.43254708    -0.26200
C749        C  0.72263006  0.60293769  0.38727803     0.35800
C750        C  0.76984351  0.60710417  0.37985703    -0.20300
C751        C  0.81290846  0.61303969  0.41799459    -0.25500
C752        C  0.81005646  0.61470402  0.46299430     0.27200
H753        H  0.68392092  0.60134862  0.43860171     0.12900
N754        N  0.67764141  0.59741524  0.34915479    -0.82800
H755        H  0.84942601  0.61598076  0.41288470     0.17800
N756        N  0.85456489  0.62082651  0.50134936    -0.81400
H757        H  0.64576248  0.59717540  0.36035325     0.33400
H758        H  0.68072898  0.57645370  0.33720810     0.37900
H759        H  0.88620461  0.62327046  0.49013919     0.33400
H760        H  0.84886847  0.64081800  0.51523606     0.30100
H761        H  0.68208896  0.66679120  0.51350095     0.33400
H762        H  0.73062705  0.66648804  0.49194800     0.30100
H763        H  0.77837491  0.55096172  0.62866967     0.37900
H764        H  0.82929065  0.55307231  0.61081501     0.33400
C765        C  0.74407650  0.56334642  0.87151610    -0.20300
C766        C  0.78287179  0.57883706  0.90436621     0.35900
C767        C  0.78511928  0.57833788  0.95109572    -0.26300
C768        C  0.74963373  0.56265321  0.96553944     0.02300
C769        C  0.71175106  0.54662491  0.93314216     0.27100
C770        C  0.70931206  0.54713696  0.88646569    -0.24600
N771        N  0.81982844  0.59490998  0.89033451    -0.82800
H772        H  0.81451302  0.59032471  0.97645181     0.12900
C773        C  0.75313251  0.56282374  0.01497370     0.02300
N774        N  0.67586829  0.53000095  0.94784204    -0.81400
H775        H  0.67936300  0.53526777  0.86150394     0.17800
C776        C  0.71569936  0.57701921  0.02897925    -0.26200
C777        C  0.71835668  0.57786739  0.07587955     0.35800
C778        C  0.75928526  0.56412950  0.10916225    -0.20300
C779        C  0.79639751  0.54974212  0.09469645    -0.25500
C780        C  0.79369183  0.54892805  0.04800519     0.27200
H781        H  0.68449957  0.58755509  0.00318868     0.12900
N782        N  0.67959692  0.59236645  0.08963991    -0.82800
H783        H  0.82821097  0.53938962  0.12005973     0.17800
N784        N  0.83194223  0.53408130  0.03390038    -0.81400
H785        H  0.65243825  0.60146901  0.06094600     0.33400
H786        H  0.66094144  0.57662496  0.10295730     0.37900
H787        H  0.85954119  0.52520917  0.06252178     0.33400
H788        H  0.81454142  0.51662521  0.01301781     0.30100
H789        H  0.65009857  0.51963799  0.91965213     0.33400
H790        H  0.69592406  0.51359492  0.96983858     0.30100
H791        H  0.84096595  0.57996710  0.87812482     0.37900
H792        H  0.84528444  0.60531803  0.91866446     0.33400
C793        C  0.80000973  0.50166071  0.73148859    -0.20300
C794        C  0.83320099  0.49285274  0.77474656     0.35900
C795        C  0.87403467  0.47444523  0.77658317    -0.26300
C796        C  0.88388369  0.46583472  0.73605756     0.02300
C797        C  0.84859476  0.47309505  0.69262771     0.27100
C798        C  0.80631351  0.49058579  0.69085606    -0.25400
N799        N  0.82665434  0.50393776  0.81663693    -0.82800
H800        H  0.90041774  0.46842041  0.80986731     0.12900
C801        C  0.93458818  0.45333045  0.73982304     0.02300
N802        N  0.85737584  0.46421680  0.65057178    -0.81400
H803        H  0.78066725  0.49751193  0.65774981     0.17800
C804        C  0.93877334  0.42748049  0.71670237    -0.26200
C805        C  0.98617194  0.41763912  0.71467535     0.35800
C806        C  0.03026468  0.43379654  0.73700378    -0.20300
C807        C  0.02620895  0.45825763  0.76314882    -0.25500
C808        C  0.97910520  0.46855707  0.76401266     0.27200
H809        H  0.90470919  0.41558999  0.69868619     0.12900
N810        N  0.98904260  0.39251031  0.68766535    -0.82800
H811        H  0.05990633  0.47062253  0.78069848     0.17800
N812        N  0.97619516  0.49537204  0.78731523    -0.81400
H813        H  0.95291637  0.38399862  0.67174978     0.33400
H814        H  0.00932280  0.37654396  0.71047892     0.37900
H815        H  0.01235862  0.50375217  0.80357187     0.33400
H816        H  0.95736007  0.51053417  0.76220169     0.30100
H817        H  0.82783470  0.47122485  0.62179238     0.33400
H818        H  0.89011416  0.47469013  0.64899283     0.30100
H819        H  0.79203729  0.49621431  0.81851724     0.37900
H820        H  0.85475235  0.49583405  0.84560379     0.33400
C821        C  0.53422642  0.57322658  0.73772887    -0.20300
C822        C  0.48984453  0.57456245  0.69893869     0.35900
C823        C  0.44560895  0.56016026  0.70040835    -0.26300
C824        C  0.44471459  0.54457842  0.73977123     0.02300
C825        C  0.48741757  0.54559933  0.77984369     0.27100
C826        C  0.53157042  0.55987681  0.77841680    -0.25400
N827        N  0.49098892  0.58828723  0.65691525    -0.82800
H828        H  0.41271755  0.55952399  0.66971332     0.12900
C829        C  0.40149717  0.52468282  0.73711498     0.02300
N830        N  0.48646385  0.53096003  0.82123019    -0.81400
H831        H  0.56527402  0.55889585  0.80837727     0.17800
C832        C  0.41130564  0.49488946  0.74462212    -0.26200
C833        C  0.37253168  0.47501218  0.74224304     0.35800
C834        C  0.32164705  0.48481570  0.73176728    -0.20300
C835        C  0.31187758  0.51477003  0.72392004    -0.25500
C836        C  0.35118218  0.53473863  0.72650177     0.27200
H837        H  0.44980044  0.48691349  0.75241843     0.12900
N838        N  0.38669896  0.44518443  0.75189001    -0.82800
H839        H  0.27338604  0.52272761  0.71596779     0.17800
N840        N  0.34031447  0.56520081  0.71900055    -0.81400
H841        H  0.37495005  0.43821692  0.77956153     0.33400
H842        H  0.36914508  0.43275421  0.72262509     0.37900
H843        H  0.30150448  0.56909966  0.71150962     0.33400
H844        H  0.35839953  0.57595295  0.75000954     0.30100
H845        H  0.52104531  0.53341441  0.84746406     0.33400
H846        H  0.45902804  0.54118213  0.83272525     0.30100
H847        H  0.49615183  0.61052750  0.66353185     0.37900
H848        H  0.45609839  0.58604914  0.63100113     0.33400
loop_ 
_geom_bond_atom_site_label_1 
_geom_bond_atom_site_label_2 
_geom_bond_distance 
_geom_bond_site_symmetry_2 
_ccdc_geom_bond_type 
O1           C16   1.257       .  A
O1           Al9   1.880       .  S
C2           O12   1.267       .  A
C2            O3   1.271       .  A
C2          C737   1.487       .  S
O3           Al5   1.930       .  S
O4            C6   1.257       .  A
O4           Al5   1.881       .  S
Al5          O13   1.929       .  S
Al5          O15   1.941       .  S
Al5          O14   1.783       .  S
C6           O19   1.263       .  A
C6          C709   1.468       .  S
O7           C17   1.258       .  A
O7           Al9   1.919       .  S
O8           C21   1.267       .  A
O8          Al18   1.894       .  S
Al9          O22   1.926       .  S
Al9          O19   1.911       .  S
Al9          O14   1.773       .  S
O10          C17   1.255       .  A
O10         Al18   1.899       .  S
O11          C20   1.257       .  A
O11         Al18   1.888       .  S
O12         Al18   1.896       .  S
O13          C20   1.266       .  A
O14         Al18   1.776       .  S
O15          C16   1.267       .  A
C16         C821   1.490       .  S
C17         C793   1.472       .  S
C20         C694   1.487       .  S
C21          O22   1.271       .  A
C21         C765   1.481       .  S
O23          C38   1.258       .  A
O23         Al31   1.881       .  S
C24          O34   1.268       .  A
C24          O25   1.268       .  A
C24         C750   1.485       .  S
O25         Al27   1.916       .  S
O26          C28   1.257       .  A
O26         Al27   1.871       .  S
Al27         O35   1.925       .  S
Al27         O37   1.929       .  S
Al27         O36   1.788       .  S
C28          O41   1.261       .  A
C28         C597   1.476       .  S
O29          C39   1.256       .  A
O29         Al31   1.911       .  S
O30          C43   1.269       .  A
O30         Al40   1.909       .  S
Al31         O44   1.914       .  S
Al31         O41   1.906       .  S
Al31         O36   1.780       .  S
O32          C39   1.256       .  A
O32         Al40   1.911       .  S
O33          C42   1.258       .  A
O33         Al40   1.898       .  S
O34         Al40   1.909       .  S
O35          C42   1.265       .  A
O36         Al40   1.781       .  S
O37          C38   1.264       .  A
C38         C653   1.493       .  S
C39         C625   1.476       .  S
C42         C569   1.490       .  S
C43          O44   1.269       .  A
C43         C778   1.482       .  S
O45          C60   1.262       .  A
O45         Al53   1.883       .  S
C46          O56   1.259       .  A
C46          O47   1.268       .  A
C46         C554   1.461       .  S
O47         Al49   1.932       .  S
O48          C50   1.253       .  A
O48         Al49   1.883       .  S
Al49         O57   1.897       .  S
Al49         O59   1.920       .  S
Al49         O58   1.790       .  S
C50          O63   1.258       .  A
C50         C666   1.491       .  S
O51          C61   1.262       .  A
O51         Al53   1.915       .  S
O52          C65   1.270       .  A
O52         Al62   1.918       .  S
Al53         O66   1.915       .  S
Al53         O63   1.914       .  S
Al53         O58   1.788       .  S
O54          C61   1.257       .  A
O54         Al62   1.894       .  S
O55          C64   1.256       .  A
O55         Al62   1.905       .  S
O56         Al62   1.872       .  S
O57          C64   1.255       .  A
O58         Al62   1.789       .  S
O59          C60   1.267       .  A
C60         C526   1.484       .  S
C61         C722   1.477       .  S
C64         C485   1.494       .  S
C65          O66   1.266       .  A
C65         C638   1.482       .  S
O67          C82   1.259       .  A
O67         Al75   1.872       .  S
C68          O78   1.262       .  A
C68          O69   1.271       .  A
C68         C541   1.474       .  S
O69         Al71   1.933       .  S
O70          C72   1.253       .  A
O70         Al71   1.894       .  S
Al71         O79   1.895       .  S
Al71         O81   1.927       .  S
Al71         O80   1.786       .  S
C72          O85   1.256       .  A
C72         C834   1.499       .  S
O73          C83   1.260       .  A
O73         Al75   1.901       .  S
O74          C87   1.268       .  A
O74         Al84   1.917       .  S
Al75         O88   1.909       .  S
Al75         O85   1.911       .  S
Al75         O80   1.787       .  S
O76          C83   1.260       .  A
O76         Al84   1.904       .  S
O77          C86   1.254       .  A
O77         Al84   1.904       .  S
O78         Al84   1.868       .  S
O79          C86   1.254       .  A
O80         Al84   1.794       .  S
O81          C82   1.270       .  A
C82         C513   1.486       .  S
C83         C610   1.468       .  S
C86         C470   1.493       .  S
C87          O88   1.266       .  A
C87         C806   1.486       .  S
O89         C104   1.259       .  A
O89         Al97   1.873       .  S
C90         O100   1.260       .  A
C90          O91   1.270       .  A
C90         C358   1.474       .  S
O91         Al93   1.931       .  S
O92          C94   1.255       .  A
O92         Al93   1.892       .  S
Al93        O101   1.898       .  S
Al93        O103   1.925       .  S
Al93        O102   1.786       .  S
C94         O107   1.257       .  A
C94         C401   1.496       .  S
O95         C105   1.264       .  A
O95         Al97   1.918       .  S
O96         C109   1.268       .  A
O96        Al106   1.914       .  S
Al97        O110   1.908       .  S
Al97        O107   1.910       .  S
Al97        O102   1.784       .  S
O98         C105   1.260       .  A
O98        Al106   1.899       .  S
O99         C108   1.257       .  A
O99        Al106   1.907       .  S
O100       Al106   1.869       .  S
O101        C108   1.254       .  A
O102       Al106   1.787       .  S
O103        C104   1.267       .  A
C104        C373   1.463       .  S
C105        C317   1.472       .  S
C108        C582   1.487       .  S
C109        O110   1.264       .  A
C109        C429   1.476       .  S
O111        C126   1.262       .  A
O111       Al119   1.879       .  S
C112        O122   1.255       .  A
C112        O113   1.267       .  A
C112        C345   1.487       .  S
O113       Al115   1.927       .  S
O114        C116   1.256       .  A
O114       Al115   1.897       .  S
Al115       O123   1.884       .  S
Al115       O125   1.935       .  S
Al115       O124   1.785       .  S
C116        O129   1.258       .  A
C116        C261   1.498       .  S
O117        C127   1.267       .  A
O117       Al119   1.909       .  S
O118        C131   1.265       .  A
O118       Al128   1.921       .  S
Al119       O132   1.902       .  S
Al119       O129   1.920       .  S
Al119       O124   1.785       .  S
O120        C127   1.265       .  A
O120       Al128   1.903       .  S
O121        C130   1.260       .  A
O121       Al128   1.913       .  S
O122       Al128   1.865       .  S
O123        C130   1.255       .  A
O124       Al128   1.788       .  S
O125        C126   1.269       .  A
C126        C386   1.466       .  S
C127        C233   1.476       .  S
C130        C681   1.480       .  S
C131        O132   1.260       .  A
C131        C289   1.484       .  S
O133        C148   1.257       .  A
O133       Al141   1.881       .  S
C134        O144   1.271       .  A
C134        O135   1.270       .  A
C134        C218   1.489       .  S
O135       Al137   1.923       .  S
O136        C138   1.255       .  A
O136       Al137   1.861       .  S
Al137       O145   1.927       .  S
Al137       O147   1.915       .  S
Al137       O146   1.788       .  S
C138        O151   1.263       .  A
C138        C246   1.485       .  S
O139        C149   1.254       .  A
O139       Al141   1.910       .  S
O140        C153   1.270       .  A
O140       Al150   1.900       .  S
Al141       O154   1.931       .  S
Al141       O151   1.920       .  S
Al141       O146   1.785       .  S
O142        C149   1.252       .  A
O142       Al150   1.897       .  S
O143        C152   1.254       .  A
O143       Al150   1.881       .  S
O144       Al150   1.905       .  S
O145        C152   1.261       .  A
O146       Al150   1.781       .  S
O147        C148   1.263       .  A
C148        C414   1.481       .  S
C149        C442   1.473       .  S
C152        C498   1.496       .  S
C153        O154   1.273       .  A
C153        C177   1.476       .  S
O155        C170   1.256       .  A
O155       Al163   1.874       .  S
C156        O166   1.273       .  A
C156        O157   1.276       .  A
C156        C205   1.487       .  S
O157       Al159   1.935       .  S
O158        C160   1.253       .  A
O158       Al159   1.860       .  S
Al159       O167   1.931       .  S
Al159       O169   1.928       .  S
Al159       O168   1.782       .  S
C160        O173   1.265       .  A
C160        C330   1.482       .  S
O161        C171   1.252       .  A
O161       Al163   1.916       .  S
O162        C175   1.269       .  A
O162       Al172   1.883       .  S
Al163       O176   1.950       .  S
Al163       O173   1.923       .  S
Al163       O168   1.778       .  S
O164        C171   1.250       .  A
O164       Al172   1.907       .  S
O165        C174   1.253       .  A
O165       Al172   1.892       .  S
O166       Al172   1.896       .  S
O167        C174   1.260       .  A
O168       Al172   1.782       .  S
O169        C170   1.265       .  A
C170        C274   1.486       .  S
C171        C302   1.475   1_545  S
C174        C457   1.498       .  S
C175        O176   1.278       .  A
C175        C190   1.468       .  S
C177        C178   1.410       .  A
C177        C182   1.403       .  A
C178        C179   1.405       .  A
C178        N183   1.438       .  S
C179        C180   1.405       .  A
C179        H184   1.083       .  S
C180        C185   1.491       .  S
C180        C181   1.414       .  A
C181        C182   1.406       .  A
C181        N186   1.438       .  S
C182        H187   1.084       .  S
N183        H203   1.046       .  S
N183        H204   1.046   1_545  S
C185        C188   1.405       .  A
C185        C192   1.416       .  A
N186        H201   1.046       .  S
N186        H202   1.046       .  S
C188        C189   1.404       .  A
C188        H193   1.083       .  S
C189        C190   1.409       .  A
C189        N194   1.439       .  S
C190        C191   1.399       .  A
C191        C192   1.406       .  A
C191        H195   1.084       .  S
C192        N196   1.438       .  S
N194        H197   1.046       .  S
N194        H198   1.045       .  S
N196        H199   1.046       .  S
N196        H200   1.046       .  S
C205        C206   1.418       .  A
C205        C210   1.408       .  A
C206        C207   1.403       .  A
C206        N211   1.438       .  S
C207        C208   1.398       .  A
C207        H212   1.084   1_556  S
C208        C213   1.477   1_556  S
C208        C209   1.407       .  A
C209        C210   1.405       .  A
C209        N214   1.438       .  S
C210        H215   1.083       .  S
N211        H231   1.046       .  S
N211        H232   1.046       .  S
C213        C216   1.397       .  A
C213        C220   1.407       .  A
N214        H229   1.046       .  S
N214        H230   1.046       .  S
C216        C217   1.404       .  A
C216        H221   1.084       .  S
C217        C218   1.422       .  A
C217        N222   1.438       .  S
C218        C219   1.407       .  A
C219        C220   1.405       .  A
C219        H223   1.081       .  S
C220        N224   1.438       .  S
N222        H225   1.046       .  S
N222        H226   1.046       .  S
N224        H227   1.046       .  S
N224        H228   1.046       .  S
C233        C234   1.421       .  A
C233        C238   1.407       .  A
C234        C235   1.405   1_565  A
C234        N239   1.439   1_565  S
C235        C236   1.401       .  A
C235        H240   1.084       .  S
C236        C241   1.473   1_656  S
C236        C237   1.403   1_645  A
C237        C238   1.398   1_455  A
C237        N242   1.439       .  S
C238        H243   1.085       .  S
N239        H259   1.039   1_545  S
N239        H260   1.046   1_545  S
C241        C244   1.402   1_545  A
C241        C248   1.403       .  A
N242        H257   1.046       .  S
N242        H258   1.045       .  S
C244        C245   1.409   1_565  A
C244        H249   1.084       .  S
C245        C246   1.415       .  A
C245        N250   1.438   1_545  S
C246        C247   1.410       .  A
C247        C248   1.399       .  A
C247        H251   1.083       .  S
C248        N252   1.439   1_554  S
N250        H253   1.046       .  S
N250        H254   1.046   1_565  S
N252        H255   1.046   1_556  S
N252        H256   1.045       .  S
C261        C262   1.421   1_565  A
C261        C266   1.408       .  A
C262        C263   1.412       .  A
C262        N267   1.438       .  S
C263        C264   1.400       .  A
C263        H268   1.084       .  S
C264        C269   1.487       .  S
C264        C265   1.409       .  A
C265        C266   1.407   1_545  A
C265        N270   1.439   1_545  S
C266        H271   1.083       .  S
N267        H287   1.046       .  S
N267        H288   1.046       .  S
C269        C272   1.401       .  A
C269        C276   1.411       .  A
N270        H285   1.046       .  S
N270        H286   1.045   1_565  S
C272        C273   1.407       .  A
C272        H277   1.084       .  S
C273        C274   1.414       .  A
C273        N278   1.438       .  S
C274        C275   1.407       .  A
C275        C276   1.411       .  A
C275        H279   1.084       .  S
C276        N280   1.438       .  S
N278        H281   1.046       .  S
N278        H282   1.046       .  S
N280        H283   1.046       .  S
N280        H284   1.045       .  S
C289        C290   1.413       .  A
C289        C294   1.406   1_655  A
C290        C291   1.403   1_655  A
C290        N295   1.438       .  S
C291        C292   1.403       .  A
C291        H296   1.083       .  S
C292        C297   1.495       .  S
C292        C293   1.414       .  A
C293        C294   1.414       .  A
C293        N298   1.437       .  S
C294        H299   1.084       .  S
N295        H315   1.045       .  S
N295        H316   1.046       .  S
C297        C300   1.408       .  A
C297        C304   1.413       .  A
N298        H313   1.046       .  S
N298        H314   1.046       .  S
C300        C301   1.411       .  A
C300        H305   1.083       .  S
C301        C302   1.408       .  A
C301        N306   1.437   1_565  S
C302        C303   1.401       .  A
C303        C304   1.407       .  A
C303        H307   1.084       .  S
C304        N308   1.437       .  S
N306        H309   1.046       .  S
N306        H310   1.045       .  S
N308        H311   1.046       .  S
N308        H312   1.045       .  S
C317        C318   1.413       .  A
C317        C322   1.402   1_565  A
C318        C319   1.399       .  A
C318        N323   1.439       .  S
C319        C320   1.398   1_565  A
C319        H324   1.084       .  S
C320        C325   1.474       .  S
C320        C321   1.417       .  A
C321        C322   1.404       .  A
C321        N326   1.438       .  S
C322        H327   1.084       .  S
N323        H343   1.046       .  S
N323        H344   1.045       .  S
C325        C328   1.395       .  A
C325        C332   1.409   1_554  A
N326        H341   1.046       .  S
N326        H342   1.044       .  S
C328        C329   1.398   1_554  A
C328        H333   1.084       .  S
C329        C330   1.417       .  A
C329        N334   1.433       .  S
C330        C331   1.405       .  A
C331        C332   1.408       .  A
C331        H335   1.083       .  S
C332        N336   1.437   1_545  S
N334        H337   1.046       .  S
N334        H338   1.046       .  S
N336        H339   1.046       .  S
N336        H340   1.045       .  S
C345        C346   1.422       .  A
C345        C350   1.406       .  A
C346        C347   1.402   1_556  A
C346        N351   1.439       .  S
C347        C348   1.397   1_554  A
C347        H352   1.084       .  S
C348        C353   1.476   1_556  S
C348        C349   1.408       .  A
C349        C350   1.404       .  A
C349        N354   1.438       .  S
C350        H355   1.083       .  S
N351        H371   1.046       .  S
N351        H372   1.046       .  S
C353        C356   1.399       .  A
C353        C360   1.410       .  A
N354        H369   1.046       .  S
N354        H370   1.046       .  S
C356        C357   1.391       .  A
C356        H361   1.084       .  S
C357        C358   1.417       .  A
C357        N362   1.434       .  S
C358        C359   1.405       .  A
C359        C360   1.407       .  A
C359        H363   1.084       .  S
C360        N364   1.437       .  S
N362        H365   1.044       .  S
N362        H366   1.046       .  S
N364        H367   1.046       .  S
N364        H368   1.046       .  S
C373        C374   1.417       .  A
C373        C378   1.399       .  A
C374        C375   1.399       .  A
C374        N379   1.440       .  S
C375        C376   1.399       .  A
C375        H380   1.084       .  S
C376        C381   1.476       .  S
C376        C377   1.410       .  A
C377        C378   1.405       .  A
C377        N382   1.438       .  S
C378        H383   1.084       .  S
N379        H399   1.042       .  S
N379        H400   1.047       .  S
C381        C384   1.400       .  A
C381        C388   1.410       .  A
N382        H397   1.046       .  S
N382        H398   1.046       .  S
C384        C385   1.403       .  A
C384        H389   1.084       .  S
C385        C386   1.410       .  A
C385        N390   1.439       .  S
C386        C387   1.400       .  A
C387        C388   1.406       .  A
C387        H391   1.084       .  S
C388        N392   1.438       .  S
N390        H393   1.046       .  S
N390        H394   1.045       .  S
N392        H395   1.046       .  S
N392        H396   1.046       .  S
C401        C402   1.421   1_565  A
C401        C406   1.408       .  A
C402        C403   1.411       .  A
C402        N407   1.438       .  S
C403        C404   1.400       .  A
C403        H408   1.084       .  S
C404        C409   1.483       .  S
C404        C405   1.408   1_545  A
C405        C406   1.405       .  A
C405        N410   1.439       .  S
C406        H411   1.083       .  S
N407        H427   1.046       .  S
N407        H428   1.046       .  S
C409        C412   1.402       .  A
C409        C416   1.409       .  A
N410        H425   1.045       .  S
N410        H426   1.045       .  S
C412        C413   1.407   1_655  A
C412        H417   1.084       .  S
C413        C414   1.413       .  A
C413        N418   1.438       .  S
C414        C415   1.406   1_455  A
C415        C416   1.407       .  A
C415        H419   1.084       .  S
C416        N420   1.438       .  S
N418        H421   1.046       .  S
N418        H422   1.046       .  S
N420        H423   1.046       .  S
N420        H424   1.045       .  S
C429        C430   1.410       .  A
C429        C434   1.404       .  A
C430        C431   1.402       .  A
C430        N435   1.433       .  S
C431        C432   1.401       .  A
C431        H436   1.084       .  S
C432        C437   1.480       .  S
C432        C433   1.409       .  A
C433        C434   1.409       .  A
C433        N438   1.437       .  S
C434        H439   1.084       .  S
N435        H455   1.046       .  S
N435        H456   1.045       .  S
C437        C440   1.401       .  A
C437        C444   1.409       .  A
N438        H453   1.046       .  S
N438        H454   1.045       .  S
C440        C441   1.403   1_565  A
C440        H445   1.084       .  S
C441        C442   1.409       .  A
C441        N446   1.436       .  S
C442        C443   1.403   1_545  A
C443        C444   1.411       .  A
C443        H447   1.084       .  S
C444        N448   1.436       .  S
N446        H449   1.046       .  S
N446        H450   1.046       .  S
N448        H451   1.046       .  S
N448        H452   1.045       .  S
C457        C458   1.416       .  A
C457        C462   1.412       .  A
C458        C459   1.414       .  A
C458        N463   1.437       .  S
C459        C460   1.407       .  A
C459        H464   1.083       .  S
C460        C465   1.493       .  S
C460        C461   1.407       .  A
C461        C462   1.403       .  A
C461        N466   1.439       .  S
C462        H467   1.083       .  S
N463        H483   1.046       .  S
N463        H484   1.046       .  S
C465        C468   1.403       .  A
C465        C472   1.410       .  A
N466        H481   1.046       .  S
N466        H482   1.046       .  S
C468        C469   1.408       .  A
C468        H473   1.084       .  S
C469        C470   1.419       .  A
C469        N474   1.438       .  S
C470        C471   1.407       .  A
C471        C472   1.409       .  A
C471        H475   1.083       .  S
C472        N476   1.437       .  S
N474        H477   1.046       .  S
N474        H478   1.045       .  S
N476        H479   1.046       .  S
N476        H480   1.046       .  S
C485        C486   1.419       .  A
C485        C490   1.410       .  A
C486        C487   1.403       .  A
C486        N491   1.438       .  S
C487        C488   1.400       .  A
C487        H492   1.084       .  S
C488        C493   1.489       .  S
C488        C489   1.410       .  A
C489        C490   1.412       .  A
C489        N494   1.437       .  S
C490        H495   1.083       .  S
N491        H511   1.046       .  S
N491        H512   1.046       .  S
C493        C496   1.407       .  A
C493        C500   1.405       .  A
N494        H509   1.046       .  S
N494        H510   1.046       .  S
C496        C497   1.417       .  A
C496        H501   1.083       .  S
C497        C498   1.417       .  A
C497        N502   1.437       .  S
C498        C499   1.411       .  A
C499        C500   1.398       .  A
C499        H503   1.083       .  S
C500        N504   1.439       .  S
N502        H505   1.046       .  S
N502        H506   1.045       .  S
N504        H507   1.046       .  S
N504        H508   1.046       .  S
C513        C514   1.417       .  A
C513        C518   1.406       .  A
C514        C515   1.400       .  A
C514        N519   1.433       .  S
C515        C516   1.399       .  A
C515        H520   1.084       .  S
C516        C521   1.483   1_556  S
C516        C517   1.410       .  A
C517        C518   1.407       .  A
C517        N522   1.437       .  S
C518        H523   1.083       .  S
N519        H539   1.046       .  S
N519        H540   1.046       .  S
C521        C524   1.402       .  A
C521        C528   1.409       .  A
N522        H537   1.046       .  S
N522        H538   1.045       .  S
C524        C525   1.407       .  A
C524        H529   1.084       .  S
C525        C526   1.415       .  A
C525        N530   1.438       .  S
C526        C527   1.406       .  A
C527        C528   1.403       .  A
C527        H531   1.084       .  S
C528        N532   1.438       .  S
N530        H533   1.045       .  S
N530        H534   1.046       .  S
N532        H535   1.046       .  S
N532        H536   1.045       .  S
C541        C542   1.411       .  A
C541        C546   1.406       .  A
C542        C543   1.405       .  A
C542        N547   1.438       .  S
C543        C544   1.405       .  A
C543        H548   1.084       .  S
C544        C549   1.479       .  S
C544        C545   1.407       .  A
C545        C546   1.401       .  A
C545        N550   1.438       .  S
C546        H551   1.084       .  S
N547        H567   1.045       .  S
N547        H568   1.046       .  S
C549        C552   1.404       .  A
C549        C556   1.411       .  A
N550        H565   1.046       .  S
N550        H566   1.046       .  S
C552        C553   1.406       .  A
C552        H557   1.083       .  S
C553        C554   1.407       .  A
C553        N558   1.437       .  S
C554        C555   1.399       .  A
C555        C556   1.400       .  A
C555        H559   1.084       .  S
C556        N560   1.438       .  S
N558        H561   1.046       .  S
N558        H562   1.045       .  S
N560        H563   1.046       .  S
N560        H564   1.046       .  S
C569        C570   1.413       .  A
C569        C574   1.406       .  A
C570        C571   1.402       .  A
C570        N575   1.433       .  S
C571        C572   1.403       .  A
C571        H576   1.083       .  S
C572        C577   1.500       .  S
C572        C573   1.417       .  A
C573        C574   1.414       .  A
C573        N578   1.437       .  S
C574        H579   1.083       .  S
N575        H595   1.046       .  S
N575        H596   1.045       .  S
C577        C580   1.409       .  A
C577        C584   1.414       .  A
N578        H593   1.046       .  S
N578        H594   1.045       .  S
C580        C581   1.411       .  A
C580        H585   1.083       .  S
C581        C582   1.411       .  A
C581        N586   1.437       .  S
C582        C583   1.405       .  A
C583        C584   1.406       .  A
C583        H587   1.084       .  S
C584        N588   1.438       .  S
N586        H589   1.046       .  S
N586        H590   1.046       .  S
N588        H591   1.046       .  S
N588        H592   1.046       .  S
C597        C598   1.414       .  A
C597        C602   1.407       .  A
C598        C599   1.403       .  A
C598        N603   1.438       .  S
C599        C600   1.402       .  A
C599        H604   1.084       .  S
C600        C605   1.472   1_655  S
C600        C601   1.405       .  A
C601        C602   1.399       .  A
C601        N606   1.438   1_655  S
C602        H607   1.084       .  S
N603        H623   1.046       .  S
N603        H624   1.046       .  S
C605        C608   1.403       .  A
C605        C612   1.406       .  A
N606        H621   1.046       .  S
N606        H622   1.046       .  S
C608        C609   1.405       .  A
C608        H613   1.084       .  S
C609        C610   1.410       .  A
C609        N614   1.437       .  S
C610        C611   1.403       .  A
C611        C612   1.397       .  A
C611        H615   1.084       .  S
C612        N616   1.439   1_455  S
N614        H617   1.046       .  S
N614        H618   1.045       .  S
N616        H619   1.046       .  S
N616        H620   1.046       .  S
C625        C626   1.409       .  A
C625        C630   1.401       .  A
C626        C627   1.410       .  A
C626        N631   1.437       .  S
C627        C628   1.405       .  A
C627        H632   1.083       .  S
C628        C633   1.490       .  S
C628        C629   1.413       .  A
C629        C630   1.408       .  A
C629        N634   1.438       .  S
C630        H635   1.083       .  S
N631        H651   1.046       .  S
N631        H652   1.046       .  S
C633        C636   1.405       .  A
C633        C640   1.411       .  A
N634        H649   1.045       .  S
N634        H650   1.046       .  S
C636        C637   1.412       .  A
C636        H641   1.084       .  S
C637        C638   1.413       .  A
C637        N642   1.437       .  S
C638        C639   1.404       .  A
C639        C640   1.406       .  A
C639        H643   1.084       .  S
C640        N644   1.438       .  S
N642        H645   1.046       .  S
N642        H646   1.045       .  S
N644        H647   1.046       .  S
N644        H648   1.046       .  S
C653        C654   1.419   1_655  A
C653        C658   1.409       .  A
C654        C655   1.412       .  A
C654        N659   1.437       .  S
C655        C656   1.402       .  A
C655        H660   1.084       .  S
C656        C661   1.483       .  S
C656        C657   1.406       .  A
C657        C658   1.404   1_455  A
C657        N662   1.438       .  S
C658        H663   1.084       .  S
N659        H679   1.046       .  S
N659        H680   1.046       .  S
C661        C664   1.400       .  A
C661        C668   1.407       .  A
N662        H677   1.046   1_455  S
N662        H678   1.045       .  S
C664        C665   1.405       .  A
C664        H669   1.084       .  S
C665        C666   1.418       .  A
C665        N670   1.439       .  S
C666        C667   1.409       .  A
C667        C668   1.410       .  A
C667        H671   1.083       .  S
C668        N672   1.437       .  S
N670        H673   1.046       .  S
N670        H674   1.046       .  S
N672        H675   1.046       .  S
N672        H676   1.045       .  S
C681        C682   1.408       .  A
C681        C686   1.404       .  A
C682        C683   1.404       .  A
C682        N687   1.432       .  S
C683        C684   1.406       .  A
C683        H688   1.083       .  S
C684        C689   1.494       .  S
C684        C685   1.416       .  A
C685        C686   1.407       .  A
C685        N690   1.438       .  S
C686        H691   1.084       .  S
N687        H707   1.046       .  S
N687        H708   1.045       .  S
C689        C692   1.401       .  A
C689        C696   1.416       .  A
N690        H705   1.046       .  S
N690        H706   1.045       .  S
C692        C693   1.402       .  A
C692        H697   1.083       .  S
C693        C694   1.418       .  A
C693        N698   1.439       .  S
C694        C695   1.403       .  A
C695        C696   1.411       .  A
C695        H699   1.083       .  S
C696        N700   1.437       .  S
N698        H701   1.046       .  S
N698        H702   1.046       .  S
N700        H703   1.046       .  S
N700        H704   1.045       .  S
C709        C710   1.410       .  A
C709        C714   1.401       .  A
C710        C711   1.405       .  A
C710        N715   1.439       .  S
C711        C712   1.405       .  A
C711        H716   1.084       .  S
C712        C717   1.481       .  S
C712        C713   1.411       .  A
C713        C714   1.400       .  A
C713        N718   1.438       .  S
C714        H719   1.084       .  S
N715        H735   1.046       .  S
N715        H736   1.046       .  S
C717        C720   1.399       .  A
C717        C724   1.412       .  A
N718        H733   1.046       .  S
N718        H734   1.046       .  S
C720        C721   1.397       .  A
C720        H725   1.084       .  S
C721        C722   1.415       .  A
C721        N726   1.439       .  S
C722        C723   1.403       .  A
C723        C724   1.408       .  A
C723        H727   1.083       .  S
C724        N728   1.437       .  S
N726        H729   1.046       .  S
N726        H730   1.045       .  S
N728        H731   1.046       .  S
N728        H732   1.046       .  S
C737        C738   1.417       .  A
C737        C742   1.408       .  A
C738        C739   1.405       .  A
C738        N743   1.438       .  S
C739        C740   1.401       .  A
C739        H744   1.084       .  S
C740        C745   1.481       .  S
C740        C741   1.406       .  A
C741        C742   1.404       .  A
C741        N746   1.438       .  S
C742        H747   1.083       .  S
N743        H763   1.046       .  S
N743        H764   1.046       .  S
C745        C748   1.404       .  A
C745        C752   1.405       .  A
N746        H761   1.046       .  S
N746        H762   1.046       .  S
C748        C749   1.408       .  A
C748        H753   1.084       .  S
C749        C750   1.414       .  A
C749        N754   1.437       .  S
C750        C751   1.409       .  A
C751        C752   1.401       .  A
C751        H755   1.084       .  S
C752        N756   1.438       .  S
N754        H757   1.046       .  S
N754        H758   1.044       .  S
N756        H759   1.046       .  S
N756        H760   1.046       .  S
C765        C766   1.414       .  A
C765        C770   1.407       .  A
C766        C767   1.406       .  A
C766        N771   1.438       .  S
C767        C768   1.402       .  A
C767        H772   1.084       .  S
C768        C773   1.479   1_556  S
C768        C769   1.407       .  A
C769        C770   1.403       .  A
C769        N774   1.438       .  S
C770        H775   1.084       .  S
N771        H791   1.046       .  S
N771        H792   1.046       .  S
C773        C776   1.404       .  A
C773        C780   1.406       .  A
N774        H789   1.046       .  S
N774        H790   1.046       .  S
C776        C777   1.408       .  A
C776        H781   1.084       .  S
C777        C778   1.412       .  A
C777        N782   1.437       .  S
C778        C779   1.408       .  A
C779        C780   1.402       .  A
C779        H783   1.084       .  S
C780        N784   1.438       .  S
N782        H785   1.046       .  S
N782        H786   1.046       .  S
N784        H787   1.046       .  S
N784        H788   1.046       .  S
C793        C794   1.409       .  A
C793        C798   1.400       .  A
C794        C795   1.402       .  A
C794        N799   1.439       .  S
C795        C796   1.404       .  A
C795        H800   1.084       .  S
C796        C801   1.492       .  S
C796        C797   1.417       .  A
C797        C798   1.411       .  A
C797        N802   1.438       .  S
C798        H803   1.084       .  S
N799        H819   1.045       .  S
N799        H820   1.046       .  S
C801        C804   1.406       .  A
C801        C808   1.413       .  A
N802        H817   1.046       .  S
N802        H818   1.046       .  S
C804        C805   1.413       .  A
C804        H809   1.083       .  S
C805        C806   1.414   1_655  A
C805        N810   1.437       .  S
C806        C807   1.405       .  A
C807        C808   1.400   1_455  A
C807        H811   1.084       .  S
C808        N812   1.439       .  S
N810        H813   1.046       .  S
N810        H814   1.045   1_655  S
N812        H815   1.046   1_655  S
N812        H816   1.045       .  S
C821        C822   1.416       .  A
C821        C826   1.407       .  A
C822        C823   1.412       .  A
C822        N827   1.437       .  S
C823        C824   1.405       .  A
C823        H828   1.083       .  S
C824        C829   1.495       .  S
C824        C825   1.411       .  A
C825        C826   1.407       .  A
C825        N830   1.438       .  S
C826        H831   1.084       .  S
N827        H847   1.045       .  S
N827        H848   1.046       .  S
C829        C832   1.403       .  A
C829        C836   1.410       .  A
N830        H845   1.046       .  S
N830        H846   1.046       .  S
C832        C833   1.400       .  A
C832        H837   1.084       .  S
C833        C834   1.422       .  A
C833        N838   1.433       .  S
C834        C835   1.411       .  A
C835        C836   1.413       .  A
C835        H839   1.083       .  S
C836        N840   1.437       .  S
N838        H841   1.046       .  S
N838        H842   1.043       .  S
N840        H843   1.046       .  S
N840        H844   1.046       .  S
