geometry optimzed in LAMMPS
_audit_creation_date              2020-12-01 
_audit_creation_method            'lammps2cif' 
_symmetry_space_group_name_H-M    'P1' 
_symmetry_Int_Tables_number       1 
_symmetry_cell_setting            triclinic 
loop_ 
_symmetry_equiv_pos_as_xyz 
  x,y,z 
_cell_length_a                    43.31774824 
_cell_length_b                    30.57188627197335 
_cell_length_c                    39.37770494649749 
_cell_angle_alpha                 91.11087107043237 
_cell_angle_beta                  90.53123628363733 
_cell_angle_gamma                 89.89073460914193 
loop_ 
_atom_site_label 
_atom_site_type_symbol 
_atom_site_fract_x 
_atom_site_fract_y 
_atom_site_fract_z 
_atom_site_charge 
O1          O  0.19550247  0.96369929  0.32723795    -0.83000
C2          C  0.15567151  0.85216816  0.43062296     0.96300
O3          O  0.14690543  0.84685509  0.39959103    -0.72100
O4          O  0.12501988  0.91885128  0.37409799    -0.75700
Al5        Al  0.15697823  0.88204603  0.35865987     1.49000
C6          C  0.12316518  0.95967185  0.37179229     0.91600
O7          O  0.18614050  0.98389309  0.42058265    -0.81900
O8          O  0.24755081  0.90057343  0.38193257    -0.75500
Al9        Al  0.19040913  0.97000666  0.37378708     1.90100
O10         O  0.21894832  0.93357274  0.43673437    -0.74600
O11         O  0.21256137  0.83035602  0.38605934    -0.74400
O12         O  0.18104997  0.87046730  0.43689286    -0.80100
O13         O  0.18584547  0.83972680  0.33954875    -0.78300
O14         O  0.18650994  0.91262452  0.37979720    -1.14400
O15         O  0.15976282  0.91475733  0.31527703    -0.73600
C16         C  0.17732083  0.94598527  0.30619841     0.97100
C17         C  0.20528150  0.96926196  0.44171063     0.93500
Al18       Al  0.21257471  0.88574571  0.40785435     1.55600
O19         O  0.14720322  0.98242055  0.36863693    -0.78200
C20         C  0.20580759  0.81866699  0.35625014     0.97700
C21         C  0.25498821  0.94009122  0.37806437     0.92500
O22         O  0.23471675  0.96996246  0.37722429    -0.83600
O23         O  0.29425725  0.53147508  0.32390429    -0.83000
C24         C  0.33691359  0.63930908  0.43076640     0.96300
O25         O  0.34386162  0.64681974  0.39992126    -0.72100
O26         O  0.36668351  0.57495057  0.37300736    -0.75700
Al27       Al  0.33366611  0.61097752  0.35854676     1.49000
C28         C  0.36904750  0.53429545  0.36801121     0.91600
O29         O  0.30836076  0.50642866  0.41505865    -0.81900
O30         O  0.24371658  0.58816425  0.38301018    -0.75500
Al31       Al  0.30177134  0.52216112  0.36961903     1.90100
O32         O  0.27586475  0.55525068  0.43561187    -0.74600
O33         O  0.27724017  0.65982641  0.38802315    -0.74400
O34         O  0.31190926  0.62089038  0.43746368    -0.80100
O35         O  0.30326644  0.65160323  0.34100964    -0.78300
O36         O  0.30510292  0.57918141  0.37882500    -1.14400
O37         O  0.33121800  0.57824918  0.31438797    -0.73600
C38         C  0.31370879  0.54701013  0.30413881     0.97100
C39         C  0.29017321  0.51957755  0.43771780     0.93500
Al40       Al  0.27949853  0.60435624  0.40853262     1.55600
O41         O  0.34513760  0.51146256  0.36265321    -0.78200
C42         C  0.28282748  0.67136715  0.35823963     0.97700
C43         C  0.23686511  0.54866095  0.37675249     0.92500
O44         O  0.25768803  0.51973862  0.37431693    -0.83600
O45         O  0.19081047  0.02650701  0.16223002    -0.83000
C46         C  0.15428265  0.13715469  0.05726131     0.96300
O47         O  0.14731760  0.14668421  0.08819300    -0.72100
O48         O  0.12287498  0.07984859  0.11780935    -0.75700
Al49       Al  0.15738719  0.11283539  0.13033638     1.49000
C50         C  0.11842277  0.03947527  0.11873628     0.91600
O51         O  0.17912001  0.00549641  0.06947029    -0.81900
O52         O  0.24547688  0.08279025  0.10651336    -0.75500
Al53       Al  0.18481004  0.02024737  0.11593034     1.90100
O54         O  0.21455837  0.05077418  0.05252967    -0.74600
O55         O  0.21458525  0.15696709  0.10023916    -0.74400
O56         O  0.17917088  0.11757171  0.05087613    -0.80100
O57         O  0.18901889  0.15238775  0.14731822    -0.78300
O58         O  0.18420166  0.07781094  0.10914420    -1.14400
O59         O  0.16030164  0.08197099  0.17441954    -0.73600
C60         C  0.17502877  0.04768684  0.18336096     0.97100
C61         C  0.19869781  0.01682430  0.04808443     0.93500
Al62       Al  0.21095770  0.10048390  0.08015254     1.55600
O63         O  0.14106987  0.01357199  0.12085525    -0.78200
C64         C  0.20934213  0.17068972  0.12982929     0.97700
C65         C  0.25081442  0.04278043  0.11194095     0.92500
O66         O  0.22905103  0.01514983  0.11295874    -0.83600
O67         O  0.29983277  0.46908947  0.15458625    -0.83000
C68         C  0.33493575  0.34646490  0.05394262     0.96300
O69         O  0.34433033  0.34334160  0.08476807    -0.72100
O70         O  0.36794451  0.41534944  0.11079758    -0.75700
Al71       Al  0.33475346  0.38069110  0.12537505     1.49000
C72         C  0.37008471  0.45627186  0.11002388     0.91600
O73         O  0.30729458  0.47767807  0.06045855    -0.81900
O74         O  0.24431800  0.40279276  0.10286963    -0.75500
Al75       Al  0.30349424  0.46937823  0.10770512     1.90100
O76         O  0.27280233  0.42826597  0.04673006    -0.74600
O77         O  0.27688505  0.32997314  0.09976793    -0.74400
O78         O  0.30907205  0.36329673  0.04784970    -0.80100
O79         O  0.30568885  0.34015883  0.14474885    -0.78300
O80         O  0.30571609  0.41109586  0.10376588    -1.14400
O81         O  0.33171830  0.41558241  0.16785334    -0.73600
C82         C  0.31667463  0.45017054  0.17587871     0.97100
C83         C  0.28729262  0.46247597  0.04026678     0.93500
Al84       Al  0.27840144  0.38316395  0.07683425     1.55600
O85         O  0.34644506  0.48004365  0.11124263    -0.78200
C86         C  0.28478674  0.31915798  0.12904242     0.97700
C87         C  0.23816695  0.44310689  0.10591561     0.92500
O88         O  0.25925388  0.47167882  0.10539552    -0.83600
O89         O  0.97300352  0.98128091  0.12698575    -0.83000
C90         C  0.40351381  0.85371084  0.05899664     0.96300
O91         O  0.43268471  0.85270879  0.05787948    -0.72100
O92         O  0.44470036  0.93082794  0.04079699    -0.75700
Al93       Al  0.46085930  0.89652806  0.07538084     1.49000
C94         C  0.45104583  0.97056166  0.04099768     0.91600
O95         O  0.39274398  0.98072746  0.09739586    -0.81900
O96         O  0.42611637  0.90810769  0.17276286    -0.75500
Al97       Al  0.43430775  0.97775861  0.11174877     1.90100
O98         O  0.37678924  0.92830146  0.13028431    -0.74600
O99         O  0.43866895  0.83451965  0.13073242    -0.74400
O100        O  0.39087153  0.86560004  0.08656873    -0.80100
O101        O  0.47967381  0.85931351  0.10628746    -0.78300
O102        O  0.43553803  0.91988289  0.10571636    -1.14400
O103        O  0.99325674  0.93740015  0.08789318    -0.73600
C104        C  0.99611220  0.96645885  0.11118925     0.97100
C105        C  0.37142523  0.96284958  0.11383236     0.93500
Al106      Al  0.41023143  0.88608828  0.12850289     1.55600
O107        O  0.44686223  0.99316269  0.06754012    -0.78200
C108        C  0.46683145  0.82947168  0.12211199     0.97700
C109        C  0.42466111  0.94892202  0.18068765     0.92500
O110        O  0.42287049  0.97682674  0.15766522    -0.83600
O111        O  0.51398968  0.51486365  0.12362430    -0.83000
C112        C  0.08969285  0.64124799  0.06063675     0.96300
O113        O  0.06056752  0.64581873  0.06080386    -0.72100
O114        O  0.04329399  0.57133922  0.03816014    -0.75700
Al115      Al  0.03059946  0.60349894  0.07605119     1.49000
C116        C  0.03515247  0.53240478  0.03540142     0.91600
O117        O  0.09691117  0.51129691  0.08915361    -0.81900
O118        O  0.06836528  0.58011945  0.17036951    -0.75500
Al119      Al  0.05543450  0.51668278  0.10420141     1.90100
O120        O  0.11513482  0.55970441  0.12590794    -0.74600
O121        O  0.05888832  0.65717222  0.13469620    -0.74400
O122        O  0.10272939  0.62591479  0.08683316    -0.80100
O123        O  0.01481099  0.63952677  0.11095938    -0.78300
O124        O  0.05629594  0.57491932  0.10312912    -1.14400
O125        O  0.49616238  0.56370606  0.08832786    -0.73600
C126        C  0.49150030  0.53327352  0.10906845     0.97100
C127        C  0.11898596  0.52606798  0.10726293     0.93500
Al128      Al  0.08399875  0.60412979  0.12774267     1.55600
O129        O  0.04088365  0.50661609  0.05910704    -0.78200
C130        C  0.03058966  0.66547363  0.12885199     0.97700
C131        C  0.06746448  0.53873282  0.17509830     0.92500
O132        O  0.06791776  0.51252386  0.15003680    -0.83600
O133        O  0.98002633  0.02124874  0.36639614    -0.83000
C134        C  0.39985487  0.13728455  0.43166898     0.96300
O135        O  0.42868282  0.14354922  0.43220010    -0.72100
O136        O  0.44643003  0.06826210  0.45290281    -0.75700
Al137      Al  0.45957986  0.10203591  0.41692857     1.49000
C138        C  0.45610844  0.02986966  0.45427477     0.91600
O139        O  0.39726899  0.00545429  0.39754171    -0.81900
O140        O  0.42391086  0.07840208  0.32030902    -0.75500
Al141      Al  0.43867933  0.01477725  0.38370458     1.90100
O142        O  0.37750988  0.05470110  0.36365093    -0.74600
O143        O  0.43222796  0.15440936  0.35779440    -0.74400
O144        O  0.38736796  0.12144173  0.40492330    -0.80100
O145        O  0.47536137  0.13902166  0.38406171    -0.78300
O146        O  0.43546771  0.07274583  0.38760963    -1.14400
O147        O  0.99713155  0.06919715  0.40426076    -0.73600
C148        C  0.00222208  0.03922741  0.38235511     0.97100
C149        C  0.37477316  0.01994806  0.38032115     0.93500
Al150      Al  0.40743167  0.10085087  0.36351244     1.55600
O151        O  0.45290819  0.00460541  0.42887239    -0.78200
C152        C  0.46051025  0.16283975  0.36409471     0.97700
C153        C  0.42661551  0.03750542  0.31355132     0.92500
O154        O  0.42721929  0.01058514  0.33734059    -0.83600
O155        O  0.51191202  0.46772225  0.35931098    -0.83000
C156        C  0.08945558  0.35757284  0.42530772     0.96300
O157        O  0.06061634  0.35135264  0.42488205    -0.72100
O158        O  0.04312211  0.42809565  0.44431355    -0.75700
Al159      Al  0.02997555  0.39223543  0.40833628     1.49000
C160        C  0.03345824  0.46659755  0.44509809     0.91600
O161        O  0.09298838  0.48747394  0.38880784    -0.81900
O162        O  0.06642481  0.40923414  0.31221957    -0.75500
Al163      Al  0.05135466  0.47722498  0.37491654     1.90100
O164        O  0.11265207  0.43530800  0.35652095    -0.74600
O165        O  0.05772926  0.33537129  0.35130726    -0.74400
O166        O  0.10218641  0.37187796  0.39883037    -0.80100
O167        O  0.01424006  0.35339575  0.37543528    -0.78300
O168        O  0.05435403  0.41948620  0.37939427    -1.14400
O169        O  0.49439696  0.42191327  0.39673511    -0.73600
C170        C  0.48954709  0.45117676  0.37495747     0.97100
C171        C  0.11556639  0.47132608  0.37256576     0.93500
Al172      Al  0.08249691  0.38950642  0.35643405     1.55600
O173        O  0.03751834  0.49022987  0.41979168    -0.78200
C174        C  0.02953455  0.32710472  0.35745830     0.97700
C175        C  0.06369405  0.44988568  0.30537653     0.92500
O176        O  0.06267495  0.47788589  0.32914052    -0.83600
O177        O  0.25856356  0.02683458  0.63160563    -0.83000
C178        C  0.33788945  0.13813852  0.56427898     0.96300
O179        O  0.30910447  0.14471091  0.56432789    -0.72100
O180        O  0.29125938  0.06703194  0.54590326    -0.75700
Al181      Al  0.27866665  0.10454919  0.58111317     1.49000
C182        C  0.28301973  0.02778655  0.54621418     0.91600
O183        O  0.34116818  0.00999950  0.60411225    -0.81900
O184        O  0.31574030  0.09117916  0.67859495    -0.75500
Al185      Al  0.29986550  0.02109711  0.61740347     1.90100
O186        O  0.36126827  0.06304219  0.63519192    -0.74600
O187        O  0.30646697  0.16299241  0.63809961    -0.74400
O188        O  0.35080680  0.12489342  0.59128664    -0.80100
O189        O  0.26301789  0.14469718  0.61296138    -0.78300
O190        O  0.30305259  0.07839359  0.61131709    -1.14400
O191        O  0.24323248  0.06960964  0.59072910    -0.73600
C192        C  0.23718952  0.04217681  0.61328837     0.97100
C193        C  0.36410886  0.02674239  0.61951110     0.93500
Al194      Al  0.33133315  0.10895621  0.63402214     1.55600
O195        O  0.28623649  0.00635370  0.57285044    -0.78200
C196        C  0.27804866  0.17049327  0.63189403     0.97700
C197        C  0.31286658  0.05095943  0.68646235     0.92500
O198        O  0.31127919  0.02188007  0.66354045    -0.83600
O199        O  0.23354638  0.47551349  0.61830985    -0.83000
C200        C  0.15394677  0.35368335  0.55749610     0.96300
O201        O  0.18278857  0.34773415  0.55748445    -0.72100
O202        O  0.20104736  0.42163024  0.53500135    -0.75700
Al203      Al  0.21342367  0.38973586  0.57264904     1.49000
C204        C  0.20938345  0.46053920  0.53316380     0.91600
O205        O  0.15071100  0.48721707  0.58804071    -0.81900
O206        O  0.17600776  0.41835697  0.66805246    -0.75500
Al207      Al  0.19203001  0.47851493  0.60300433     1.90100
O208        O  0.13055402  0.43832098  0.62165895    -0.74600
O209        O  0.18592758  0.34052690  0.63330467    -0.74400
O210        O  0.14145316  0.36975191  0.58384206    -0.80100
O211        O  0.22880704  0.35426694  0.60675020    -0.78300
O212        O  0.18898696  0.42032885  0.60063171    -1.14400
O213        O  0.24924305  0.42565112  0.58157085    -0.73600
C214        C  0.25522522  0.45649634  0.60248515     0.97100
C215        C  0.12777334  0.47144398  0.60311926     0.93500
Al216      Al  0.16083132  0.39314740  0.62488527     1.55600
O217        O  0.20568427  0.48635760  0.55803617    -0.78200
C218        C  0.21412569  0.33179762  0.62735436     0.97700
C219        C  0.17818587  0.45958110  0.67355628     0.92500
O220        O  0.18036648  0.48494400  0.64891475    -0.83600
O221        O  0.26214722  0.98055341  0.86779365    -0.83000
C222        C  0.33675458  0.85490463  0.92876066     0.96300
O223        O  0.30766060  0.85140999  0.92763735    -0.72100
O224        O  0.29095832  0.92686466  0.95113156    -0.75700
Al225      Al  0.27842899  0.89454512  0.91249794     1.49000
C226        C  0.28253081  0.96596526  0.95322850     0.91600
O227        O  0.34412003  0.98660115  0.90178469    -0.81900
O228        O  0.31715356  0.91812795  0.81915580    -0.75500
Al229      Al  0.30320685  0.98101592  0.88480247     1.90100
O230        O  0.36343873  0.93822035  0.86582252    -0.74600
O231        O  0.30674354  0.84119271  0.85378691    -0.74400
O232        O  0.35051529  0.87092918  0.90357054    -0.80100
O233        O  0.26285525  0.85890018  0.87707636    -0.78300
O234        O  0.30432816  0.92288843  0.88607056    -1.14400
O235        O  0.24400888  0.93249538  0.90311804    -0.73600
C236        C  0.23961120  0.96390657  0.88305616     0.97100
C237        C  0.36675970  0.97140294  0.88532177     0.93500
Al238      Al  0.33224124  0.89371301  0.86223421     1.55600
O239        O  0.28805976  0.99090438  0.92917714    -0.78200
C240        C  0.27839918  0.83306038  0.85893120     0.97700
C241        C  0.31663390  0.95947658  0.81447422     0.92500
O242        O  0.31676742  0.98573025  0.83947310    -0.83600
O243        O  0.22957071  0.52685214  0.85572534    -0.83000
C244        C  0.15389025  0.64432704  0.92895429     0.96300
O245        O  0.18293850  0.64756523  0.92816990    -0.72100
O246        O  0.20013968  0.56964447  0.94424182    -0.75700
Al247      Al  0.21195556  0.60653379  0.90901088     1.49000
C248        C  0.20738508  0.52994716  0.94251380     0.91600
O249        O  0.14762393  0.51419127  0.88782231    -0.81900
O250        O  0.17072749  0.59236306  0.81302320    -0.75500
Al251      Al  0.18835245  0.52332088  0.87211046     1.90100
O252        O  0.12664449  0.56755419  0.85895058    -0.74600
O253        O  0.18288550  0.66486809  0.85401050    -0.74400
O254        O  0.13982293  0.63102169  0.90229075    -0.80100
O255        O  0.22678256  0.64610101  0.87728010    -0.78300
O256        O  0.18611960  0.58091172  0.87945883    -1.14400
O257        O  0.24658973  0.57041202  0.89691565    -0.73600
C258        C  0.25154891  0.54197696  0.87379356     0.97100
C259        C  0.12429967  0.53158971  0.87399382     0.93500
Al260      Al  0.15737411  0.61217457  0.85867447     1.55600
O261        O  0.20363620  0.50901920  0.91517012    -0.78200
C262        C  0.21138505  0.67224767  0.85961774     0.97700
C263        C  0.17210022  0.55179585  0.80451537     0.92500
O264        O  0.17449155  0.52345136  0.82699967    -0.83600
O265        O  0.04637887  0.96701899  0.66094988    -0.83000
C266        C  0.08399672  0.85388337  0.55473924     0.96300
O267        O  0.09189025  0.84749067  0.58578159    -0.72100
O268        O  0.11625315  0.91745270  0.61464663    -0.75700
Al269      Al  0.08250930  0.88292418  0.62777958     1.49000
C270        C  0.11865913  0.95831636  0.61747537     0.91600
O271        O  0.05850629  0.98697987  0.56906491    -0.81900
O272        O  0.49285748  0.91443158  0.60918613    -0.75500
Al273      Al  0.05252864  0.97335008  0.61493383     1.90100
O274        O  0.02376567  0.94028821  0.55015113    -0.74600
O275        O  0.02552554  0.83594582  0.59750496    -0.74400
O276        O  0.05929042  0.87374965  0.54828436    -0.80100
O277        O  0.05170309  0.84300986  0.64476384    -0.78300
O278        O  0.05457403  0.91589728  0.60697815    -1.14400
O279        O  0.08012255  0.91552424  0.67207100    -0.73600
C280        C  0.06419706  0.94879776  0.68155247     0.97100
C281        C  0.03946342  0.97440464  0.54681231     0.93500
Al282      Al  0.02793741  0.89145185  0.57756264     1.55600
O283        O  0.09529427  0.98227196  0.62110054    -0.78200
C284        C  0.03097147  0.82393083  0.62725452     0.97700
C285        C  0.48737273  0.95420475  0.61625861     0.92500
O286        O  0.50888471  0.98211464  0.61605243    -0.83600
O287        O  0.44707065  0.53186948  0.66633712    -0.83000
C288        C  0.41033472  0.63418112  0.55572681     0.96300
O289        O  0.40105442  0.64326434  0.58586990    -0.72100
O290        O  0.37841527  0.57377891  0.61443310    -0.75700
Al291      Al  0.41018387  0.61172397  0.62896782     1.49000
C292        C  0.37684478  0.53298890  0.61719914     0.91600
O293        O  0.44197218  0.50514920  0.57337110    -0.81900
O294        O  0.99983884  0.58587493  0.60809746    -0.75500
Al295      Al  0.44410028  0.52251000  0.61966401     1.90100
O296        O  0.47502092  0.55444592  0.55694823    -0.74600
O297        O  0.46691000  0.66116271  0.60249934    -0.74400
O298        O  0.43643289  0.61701480  0.55138972    -0.80100
O299        O  0.43823819  0.65550488  0.64738057    -0.78300
O300        O  0.44043281  0.57942635  0.61090377    -1.14400
O301        O  0.41188420  0.58308896  0.67365225    -0.73600
C302        C  0.42829408  0.55182491  0.68506993     0.97100
C303        C  0.46131660  0.51873743  0.55248844     0.93500
Al304      Al  0.46749081  0.60418627  0.58316427     1.55600
O305        O  0.40081807  0.51038585  0.62190340    -0.78200
C306        C  0.45869255  0.67535332  0.63108617     0.97700
C307        C  0.00621766  0.54600433  0.61279534     0.92500
O308        O  0.98485365  0.51797446  0.61418694    -0.83600
O309        O  0.04845673  0.02454348  0.83292393    -0.83000
C310        C  0.08138941  0.15011571  0.93228969     0.96300
O311        O  0.09060369  0.15338846  0.90164471    -0.72100
O312        O  0.11458015  0.08146780  0.87785794    -0.75700
Al313      Al  0.08138468  0.11503510  0.86149749     1.49000
C314        C  0.11739526  0.04085325  0.88062641     0.91600
O315        O  0.05342075  0.01982263  0.92743013    -0.81900
O316        O  0.49150357  0.09457606  0.88737153    -0.75500
Al317      Al  0.05082802  0.02649526  0.88002833     1.90100
O318        O  0.01888739  0.06986639  0.93934439    -0.74600
O319        O  0.02270482  0.16570355  0.88421537    -0.74400
O320        O  0.05508152  0.13508654  0.93829753    -0.80100
O321        O  0.05238597  0.15488388  0.84055142    -0.78300
O322        O  0.05235296  0.08503443  0.88287003    -1.14400
O323        O  0.07889674  0.07895037  0.81936580    -0.73600
C324        C  0.06463424  0.04358458  0.81148722     0.97100
C325        C  0.03335589  0.03589428  0.94670177     0.93500
Al326      Al  0.02454499  0.11372998  0.90853205     1.55600
O327        O  0.09411466  0.01640805  0.87928225    -0.78200
C328        C  0.03086260  0.17564810  0.85500719     0.97700
C329        C  0.48506095  0.05466497  0.88250697     0.92500
O330        O  0.50588799  0.02565263  0.88217224    -0.83600
O331        O  0.44696777  0.46984032  0.83149828    -0.83000
C332        C  0.40614383  0.35413678  0.93129722     0.96300
O333        O  0.39859708  0.34962032  0.89988169    -0.72100
O334        O  0.37453643  0.42083918  0.87406535    -0.75700
Al335      Al  0.40888281  0.38672928  0.86025235     1.49000
C336        C  0.37165388  0.46150354  0.87106338     0.91600
O337        O  0.42936098  0.49101111  0.92316546    -0.81900
O338        O  0.99840291  0.41437338  0.88577337    -0.75500
Al339      Al  0.43784269  0.47723839  0.87716688     1.90100
O340        O  0.46259224  0.44313924  0.94281200    -0.74600
O341        O  0.46709835  0.34135391  0.88981396    -0.74400
O342        O  0.43010684  0.37481576  0.93934872    -0.80100
O343        O  0.44032226  0.34709185  0.84278120    -0.78300
O344        O  0.43601950  0.41963847  0.88337878    -1.14400
O345        O  0.41233739  0.42058061  0.81740129    -0.73600
C346        C  0.42944467  0.45284740  0.80940318     0.97100
C347        C  0.44711501  0.47771243  0.94623444     0.93500
Al348      Al  0.46180869  0.39532878  0.91302601     1.55600
O349        O  0.39487378  0.48568965  0.86781531    -0.78200
C350        C  0.46150794  0.32892350  0.85982613     0.97700
C351        C  0.00409292  0.45413229  0.88126009     0.92500
O352        O  0.98263142  0.48205441  0.88049750    -0.83600
C353        C  0.01441171  0.21280322  0.83943539    -0.07300
C354        C  0.02913792  0.25351086  0.83966940    -0.18500
C355        C  0.51296320  0.29389305  0.84736169     0.09900
C356        C  0.48027483  0.29187261  0.84634184    -0.07300
C357        C  0.46612750  0.25117728  0.84081561    -0.18500
C358        C  0.48368378  0.21248082  0.84012428     0.09900
S359        S  0.53253600  0.34581949  0.85111814    -0.33500
S360        S  0.46323465  0.16144324  0.83524882    -0.33500
H361        H  0.98608216  0.13599938  0.81925137     0.27900
H362        H  0.56287435  0.32935121  0.85070191     0.27900
H363        H  0.05402300  0.25471906  0.84242815     0.18500
H364        H  0.44116189  0.24913887  0.83986776     0.18500
C365        C  0.42493219  0.53415656  0.71969222    -0.07300
C366        C  0.40183203  0.50260056  0.72488628    -0.18500
C367        C  0.40317724  0.47360433  0.75241181     0.09900
C368        C  0.42829743  0.47569367  0.77573934    -0.07300
C369        C  0.45137783  0.50739746  0.76996353    -0.18500
C370        C  0.44973121  0.53651290  0.74295595     0.09900
S371        S  0.37237659  0.43464987  0.75591935    -0.33500
S372        S  0.48034417  0.57603809  0.73935971    -0.33500
H373        H  0.46363957  0.60593210  0.71961353     0.27900
H374        H  0.39251523  0.39883587  0.75952427     0.27900
H375        H  0.38343306  0.49880935  0.70623291     0.18500
H376        H  0.47093114  0.51048560  0.78719574     0.18500
C377        C  0.06758245  0.02089103  0.77775539    -0.07300
C378        C  0.07113619  0.97480922  0.77717400    -0.18500
C379        C  0.07084016  0.94997225  0.74664923     0.09900
C380        C  0.06739535  0.97137504  0.71549727    -0.07300
C381        C  0.06525122  0.01766204  0.71616579    -0.18500
C382        C  0.06488039  0.04232226  0.74661780     0.09900
S383        S  0.07323643  0.89132345  0.74932395    -0.33500
S384        S  0.05887759  0.10051402  0.74405188    -0.33500
H385        H  0.03909797  0.10366453  0.77214077     0.27900
H386        H  0.05153527  0.88269092  0.72326796     0.27900
H387        H  0.07330681  0.95773433  0.80094815     0.18500
H388        H  0.06288693  0.03500943  0.69253669     0.18500
C389        C  0.47431419  0.71535228  0.64429116    -0.07300
C390        C  0.50622345  0.71261592  0.65115284    -0.18500
C391        C  0.52517747  0.74994482  0.65138157     0.09900
C392        C  0.01130613  0.78808276  0.64021774    -0.07300
C393        C  0.97942898  0.79077663  0.63313383    -0.18500
C394        C  0.46091827  0.75701248  0.64031505     0.09900
S395        S  0.06355685  0.74124148  0.66222979    -0.33500
S396        S  0.42051587  0.76422582  0.63058247    -0.33500
H397        H  0.41035777  0.72848839  0.64935119     0.27900
H398        H  0.06550076  0.78026813  0.68160663     0.27900
H399        H  0.51685736  0.68070201  0.65368738     0.18500
H400        H  0.96977606  0.82127610  0.62422649     0.18500
C401        C  0.28276613  0.52271930  0.87146723    -0.07300
C402        C  0.29825168  0.51396917  0.90217702    -0.18500
C403        C  0.32700076  0.49309657  0.90251384     0.09900
C404        C  0.34088152  0.48145048  0.87157772    -0.07300
C405        C  0.32591366  0.49070537  0.84076782    -0.18500
C406        C  0.29672484  0.51092215  0.84037513     0.09900
S407        S  0.34587680  0.48107284  0.94240921    -0.33500
S408        S  0.27819004  0.52317157  0.80037174    -0.33500
H409        H  0.30110557  0.50490826  0.77931853     0.27900
H410        H  0.32600980  0.50606475  0.96313612     0.27900
H411        H  0.28739812  0.52254172  0.92604948     0.18500
H412        H  0.33719147  0.48211172  0.81714046     0.18500
C413        C  0.03597879  0.46909390  0.87810658    -0.07300
C414        C  0.04349662  0.49377136  0.84986897    -0.18500
C415        C  0.07248956  0.51340915  0.84730283     0.09900
C416        C  0.09409437  0.50942661  0.87436528    -0.07300
C417        C  0.08664189  0.48387579  0.90232892    -0.18500
C418        C  0.05791637  0.46349240  0.90435516     0.09900
S419        S  0.08165615  0.54181930  0.80875458    -0.33500
S420        S  0.04944029  0.43417471  0.94235011    -0.33500
H421        H  0.04244832  0.39500713  0.92463212     0.27900
H422        H  0.05320986  0.53525196  0.79191746     0.27900
H423        H  0.02642771  0.49769200  0.82987356     0.18500
H424        H  0.10301385  0.48056739  0.92310727     0.18500
C425        C  0.39660251  0.99468941  0.88556471    -0.07300
C426        C  0.41346506  0.99408619  0.85522027    -0.18500
C427        C  0.44123943  0.01666406  0.85257508     0.09900
C428        C  0.45285443  0.04025920  0.88086979    -0.07300
C429        C  0.43575282  0.04216977  0.91097165    -0.18500
C430        C  0.40788900  0.01937639  0.91375981     0.09900
S431        S  0.46069842  0.01417223  0.81236606    -0.33500
S432        S  0.38921729  0.02064316  0.95450862    -0.33500
H433        H  0.38038839  0.97635336  0.95321335     0.27900
H434        H  0.47753946  0.05314157  0.81692623     0.27900
H435        H  0.40473884  0.97632906  0.83306746     0.18500
H436        H  0.44516142  0.05920346  0.93313619     0.18500
C437        C  0.20810653  0.98321248  0.88028311    -0.07300
C438        C  0.18436354  0.96468628  0.89959426    -0.18500
C439        C  0.15513365  0.98389883  0.90172477     0.09900
C440        C  0.14861742  0.02172177  0.88305516    -0.07300
C441        C  0.17211096  0.04054206  0.86396099    -0.18500
C442        C  0.20174150  0.02223812  0.86252266     0.09900
S443        S  0.12786652  0.96014242  0.93033069    -0.33500
S444        S  0.23043384  0.04995570  0.83774574    -0.33500
H445        H  0.21555929  0.09090728  0.83732627     0.27900
H446        H  0.11543281  0.00046704  0.94134879     0.27900
H447        H  0.18880293  0.93576483  0.91435402     0.18500
H448        H  0.16700020  0.06937359  0.84935636     0.18500
C449        C  0.26278499  0.79167951  0.84705214    -0.07300
C450        C  0.23031915  0.79203566  0.84335193    -0.18500
C451        C  0.21278830  0.75329243  0.84320249     0.09900
C452        C  0.22768854  0.71263546  0.84806513    -0.07300
C453        C  0.26029280  0.71204269  0.84784153    -0.18500
C454        C  0.27782924  0.75061902  0.84695364     0.09900
S455        S  0.17150155  0.75864115  0.83988092    -0.33500
S456        S  0.31913074  0.74513491  0.84990000    -0.33500
H457        H  0.32452638  0.77363599  0.82296623     0.27900
H458        H  0.16872690  0.72530642  0.81488502     0.27900
H459        H  0.21824697  0.82308505  0.84252382     0.18500
H460        H  0.27242582  0.68122424  0.85035184     0.18500
C461        C  0.28747935  0.47272945  0.60715588    -0.07300
C462        C  0.29228798  0.50816557  0.62990766    -0.18500
C463        C  0.32120700  0.52752065  0.63415606     0.09900
C464        C  0.34643273  0.51164371  0.61520145    -0.07300
C465        C  0.34224679  0.47577163  0.59302988    -0.18500
C466        C  0.31310520  0.45625494  0.58842378     0.09900
S467        S  0.32446333  0.57188816  0.66480341    -0.33500
S468        S  0.30955021  0.41156336  0.55781851    -0.33500
H469        H  0.34039523  0.41078087  0.54698284     0.27900
H470        H  0.35345774  0.55883243  0.67725456     0.27900
H471        H  0.27329187  0.52136424  0.64461191     0.18500
H472        H  0.36179080  0.46398399  0.57852987     0.18500
C473        C  0.03833509  0.52930915  0.61155038    -0.07300
C474        C  0.04190397  0.48511463  0.60168745    -0.18500
C475        C  0.07071825  0.46681280  0.59598148     0.09900
C476        C  0.09733435  0.49238920  0.60110048    -0.07300
C477        C  0.09427270  0.53678674  0.61035563    -0.18500
C478        C  0.06504299  0.55548699  0.61586949     0.09900
S479        S  0.07193288  0.41081361  0.58100039    -0.33500
S480        S  0.06360009  0.61168682  0.63026205    -0.33500
H481        H  0.04010626  0.60456726  0.65396918     0.27900
H482        H  0.09632782  0.41852572  0.55873483     0.27900
H483        H  0.02197133  0.46445497  0.59724063     0.18500
H484        H  0.11476643  0.55631982  0.61512656     0.18500
C485        C  0.17742303  0.48125803  0.70812473    -0.07300
C486        C  0.19262632  0.52202839  0.71268494    -0.18500
C487        C  0.18948173  0.54796264  0.74246694     0.09900
C488        C  0.17066315  0.53347593  0.76895582    -0.07300
C489        C  0.15505792  0.49314561  0.76411030    -0.18500
C490        C  0.15849851  0.46697276  0.73462638     0.09900
S491        S  0.21153713  0.59764806  0.74609271    -0.33500
S492        S  0.13746599  0.41633332  0.73205837    -0.33500
H493        H  0.16412437  0.39104783  0.72613563     0.27900
H494        H  0.18647587  0.62300469  0.75759101     0.27900
H495        H  0.20714444  0.53407331  0.69265198     0.18500
H496        H  0.14078891  0.48089806  0.78429718     0.18500
C497        C  0.45530607  0.96940255  0.62167879    -0.07300
C498        C  0.43097640  0.94627635  0.60581145    -0.18500
C499        C  0.40080625  0.96291973  0.60545491     0.09900
C500        C  0.39475449  0.00468181  0.62026294    -0.07300
C501        C  0.41902969  0.02669910  0.63728937    -0.18500
C502        C  0.44871151  0.00928789  0.63885654     0.09900
S503        S  0.37155118  0.92902453  0.58566835    -0.33500
S504        S  0.47674940  0.03949421  0.66399001    -0.33500
H505        H  0.49077642  0.00189356  0.67715120     0.27900
H506        H  0.35233406  0.93060975  0.61430833     0.27900
H507        H  0.43556198  0.91536954  0.59287019     0.18500
H508        H  0.41500723  0.05794317  0.64994889     0.18500
C509        C  0.20562460  0.02419757  0.61605786    -0.07300
C510        C  0.20164122  0.98752333  0.63666668    -0.18500
C511        C  0.17370432  0.96509329  0.63738665     0.09900
C512        C  0.14895083  0.97921120  0.61695094    -0.07300
C513        C  0.15246326  0.01593812  0.59673550    -0.18500
C514        C  0.18029799  0.03866477  0.59599663     0.09900
S515        S  0.17090401  0.91954728  0.66556882    -0.33500
S516        S  0.18138599  0.08489593  0.56828366    -0.33500
H517        H  0.19498727  0.11294965  0.59271920     0.27900
H518        H  0.14132771  0.93079922  0.67728513     0.27900
H519        H  0.22055846  0.97557447  0.65213159     0.18500
H520        H  0.13325111  0.02697630  0.58123521     0.18500
C521        C  0.31150160  0.03406743  0.72185157    -0.07300
C522        C  0.28983608  0.00061605  0.72803673    -0.18500
C523        C  0.29146138  0.97452502  0.75709541     0.09900
C524        C  0.31598523  0.98036238  0.78052356    -0.07300
C525        C  0.33735083  0.01422736  0.77472296    -0.18500
C526        C  0.33533055  0.04095543  0.74601314     0.09900
S527        S  0.26118420  0.93512018  0.76315867    -0.33500
S528        S  0.36499358  0.08120180  0.74040515    -0.33500
H529        H  0.34423841  0.11445293  0.73126981     0.27900
H530        H  0.25947392  0.94075508  0.79861890     0.27900
H531        H  0.27159883  0.99421501  0.70956812     0.18500
H532        H  0.35574212  0.02025149  0.79307604     0.18500
C533        C  0.26207434  0.21145646  0.64354154    -0.07300
C534        C  0.27850862  0.25091512  0.64454159    -0.18500
C535        C  0.26306776  0.29138730  0.64423480     0.09900
C536        C  0.23032972  0.29283484  0.64139103    -0.07300
C537        C  0.21395275  0.25373981  0.64502892    -0.18500
C538        C  0.22943812  0.21339077  0.64694278     0.09900
S539        S  0.28659461  0.34006773  0.64588732    -0.33500
S540        S  0.20608265  0.16539965  0.65275118    -0.33500
H541        H  0.22961775  0.14050939  0.66796139     0.27900
H542        H  0.26379800  0.36710692  0.66057200     0.27900
H543        H  0.30348388  0.25034888  0.64327917     0.18500
H544        H  0.18894088  0.25416578  0.64419369     0.18500
C545        C  0.47066485  0.49366616  0.52298639    -0.07300
C546        C  0.47117836  0.51740935  0.49308567    -0.18500
C547        C  0.49333865  0.50934943  0.46857878     0.09900
C548        C  0.01066805  0.47910324  0.47103835    -0.07300
C549        C  0.00527068  0.44935407  0.49727547    -0.18500
C550        C  0.98128752  0.45598292  0.52021202     0.09900
S551        S  0.49458011  0.54602058  0.43298278    -0.33500
S552        S  0.97566366  0.41867983  0.55459258    -0.33500
H553        H  0.99844458  0.38823413  0.54479030     0.27900
H554        H  0.46700185  0.56894038  0.43947405     0.27900
H555        H  0.45658400  0.54604808  0.49101227     0.18500
H556        H  0.02001441  0.42099165  0.50005121     0.18500
C557        C  0.10722153  0.35417647  0.45843579    -0.07300
C558        C  0.10860065  0.31492634  0.47679269    -0.18500
C559        C  0.12312082  0.31298828  0.50933446     0.09900
C560        C  0.13625945  0.35120577  0.52441653    -0.07300
C561        C  0.13400847  0.39021289  0.50643386    -0.18500
C562        C  0.11983895  0.39221443  0.47422000     0.09900
S563        S  0.12374179  0.26116306  0.53032225    -0.33500
S564        S  0.11654213  0.44468546  0.45452332    -0.33500
H565        H  0.12992639  0.47015630  0.48087070     0.27900
H566        H  0.12838810  0.27787680  0.56346223     0.27900
H567        H  0.09820911  0.28565026  0.46582732     0.18500
H568        H  0.14335723  0.41977706  0.51801660     0.18500
C569        C  0.01351531  0.28555908  0.34660879    -0.07300
C570        C  0.98093289  0.28622234  0.34435132    -0.18500
C571        C  0.46303875  0.24254343  0.34468948     0.09900
C572        C  0.47727764  0.20171808  0.35045171    -0.07300
C573        C  0.50983036  0.19993834  0.34922142    -0.18500
C574        C  0.02835061  0.24436282  0.34580284     0.09900
S575        S  0.42180657  0.24949017  0.34391775    -0.33500
S576        S  0.06967449  0.23852648  0.34744772    -0.33500
H577        H  0.07451326  0.26726779  0.32053919     0.27900
H578        H  0.41710875  0.21551963  0.31981046     0.27900
H579        H  0.96894088  0.31736614  0.34424620     0.18500
H580        H  0.52143006  0.16868632  0.35196432     0.18500
C581        C  0.47921093  0.01928958  0.48021038    -0.07300
C582        C  0.00324702  0.99178320  0.46649095    -0.18500
C583        C  0.02847915  0.98255060  0.48695395     0.09900
C584        C  0.03044070  0.00206789  0.51936323    -0.07300
C585        C  0.50713291  0.03726011  0.53210156    -0.18500
C586        C  0.48121071  0.04262144  0.51147096     0.09900
S587        S  0.05569625  0.94175961  0.47231302    -0.33500
S588        S  0.45035587  0.07609222  0.52801785    -0.33500
H589        H  0.42711093  0.04900430  0.51417986     0.27900
H590        H  0.07834095  0.95084489  0.49730974     0.27900
H591        H  0.00185814  0.97581009  0.44171652     0.18500
H592        H  0.50704919  0.05160108  0.55753352     0.18500
C593        C  0.35516680  0.13989458  0.53105731    -0.07300
C594        C  0.35853419  0.17922359  0.51320417    -0.18500
C595        C  0.37240152  0.18008275  0.48057444     0.09900
C596        C  0.38213378  0.14059831  0.46440937    -0.07300
C597        C  0.37780249  0.10150527  0.48183516    -0.18500
C598        C  0.36509722  0.10071910  0.51467100     0.09900
S599        S  0.37678675  0.23241780  0.46091775    -0.33500
S600        S  0.36147833  0.04879277  0.53518269    -0.33500
H601        H  0.36972282  0.02198208  0.50727725     0.27900
H602        H  0.37981235  0.21657463  0.42737467     0.27900
H603        H  0.35045156  0.20951179  0.52477332     0.18500
H604        H  0.38530818  0.07118895  0.46984375     0.18500
C605        C  0.10770928  0.65005506  0.02828650    -0.07300
C606        C  0.09138769  0.66063212  0.99818176    -0.18500
C607        C  0.10572532  0.66183813  0.96597321     0.09900
C608        C  0.13753241  0.65191262  0.96264523    -0.07300
C609        C  0.15421191  0.64392950  0.99290667    -0.18500
C610        C  0.14003491  0.64269613  0.02517995     0.09900
S611        S  0.08209122  0.67666256  0.93013654    -0.33500
S612        S  0.16390762  0.62994388  0.06164928    -0.33500
H613        H  0.19225851  0.62620656  0.04471921     0.27900
H614        H  0.10568993  0.69921841  0.91353592     0.27900
H615        H  0.06681030  0.66693630  0.99943196     0.18500
H616        H  0.17856099  0.63643494  0.99109684     0.18500
C617        C  0.01090239  0.52092834  0.01081057    -0.07300
C618        C  0.48567544  0.49019338  0.02515918    -0.18500
C619        C  0.45879692  0.48484789  0.00604597     0.09900
C620        C  0.45623534  0.50536661  0.97457854    -0.07300
C621        C  0.97830186  0.53873228  0.96283528    -0.18500
C622        C  0.00548750  0.54549555  0.98131966     0.09900
S623        S  0.43070010  0.44557049  0.01968669    -0.33500
S624        S  0.03335625  0.58261407  0.96413538    -0.33500
H625        H  0.05940751  0.55922818  0.97537507     0.27900
H626        H  0.40749266  0.45801421  0.99652556     0.27900
H627        H  0.48761070  0.47334392  0.04903986     0.18500
H628        H  0.97576446  0.55421715  0.93839796     0.18500
C629        C  0.06647460  0.51758427  0.20914522    -0.07300
C630        C  0.07959573  0.47523739  0.21208060    -0.18500
C631        C  0.07752648  0.45081688  0.24190929     0.09900
C632        C  0.06222686  0.46868018  0.27038129    -0.07300
C633        C  0.04863550  0.51072645  0.26715837    -0.18500
C634        C  0.05041860  0.53492950  0.23724373     0.09900
S635        S  0.09624568  0.39828318  0.24252257    -0.33500
S636        S  0.03100586  0.58704691  0.23640845    -0.33500
H637        H  0.01815271  0.58039605  0.20380666     0.27900
H638        H  0.06973829  0.37645480  0.25363773     0.27900
H639        H  0.09167345  0.46064059  0.19070166     0.18500
H640        H  0.03645448  0.52535486  0.28845854     0.18500
C641        C  0.42401721  0.96780962  0.21615643    -0.07300
C642        C  0.40776785  0.00769250  0.22095864    -0.18500
C643        C  0.41002658  0.03294036  0.25105011     0.09900
C644        C  0.42809270  0.01792213  0.27836240    -0.07300
C645        C  0.44428922  0.97791625  0.27373951    -0.18500
C646        C  0.44250865  0.95302177  0.24325250     0.09900
S647        S  0.38836111  0.08314521  0.25335990    -0.33500
S648        S  0.95441087  0.89921334  0.24127920    -0.33500
H649        H  0.92762960  0.87747156  0.22961970     0.27900
H650        H  0.41427387  0.10853309  0.26258582     0.27900
H651        H  0.39352157  0.02013122  0.20051682     0.18500
H652        H  0.45830022  0.96549914  0.29437736     0.18500
C653        C  0.48530980  0.78827690  0.12855058    -0.07300
C654        C  0.47293268  0.75422089  0.14781236    -0.18500
C655        C  0.48863804  0.71389214  0.15141570     0.09900
C656        C  0.01657634  0.70876493  0.13732041    -0.07300
C657        C  0.03128542  0.74497321  0.12390663    -0.18500
C658        C  0.51500986  0.78089193  0.11378062     0.09900
S659        S  0.96441817  0.66880491  0.16584754    -0.33500
S660        S  0.53169093  0.81462229  0.08169610    -0.33500
H661        H  0.50546782  0.81160611  0.06040566     0.27900
H662        H  0.99037551  0.64438922  0.17583872     0.27900
H663        H  0.45027677  0.75817493  0.15888735     0.18500
H664        H  0.05448541  0.74077050  0.11431646     0.18500
C665        C  0.02126293  0.01207339  0.97463513    -0.07300
C666        C  0.00320202  0.97595657  0.96518029    -0.18500
C667        C  0.97760413  0.96463360  0.98424804     0.09900
C668        C  0.47188584  0.98690242  0.01517546    -0.07300
C669        C  0.49329525  0.01884253  0.02599108    -0.18500
C670        C  0.51857407  0.02889644  0.00629305     0.09900
S671        S  0.95184142  0.92264687  0.96792319    -0.33500
S672        S  0.54442841  0.07238060  0.01942362    -0.33500
H673        H  0.52433184  0.09173491  0.04322290     0.27900
H674        H  0.96852352  0.91152657  0.93851494     0.27900
H675        H  0.00698409  0.96004172  0.94073735     0.18500
H676        H  0.49075903  0.03538895  0.05032290     0.18500
C677        C  0.35368821  0.84482130  0.96152491    -0.07300
C678        C  0.33735973  0.84907670  0.99229137    -0.18500
C679        C  0.35229043  0.84956264  0.02442593     0.09900
C680        C  0.38490975  0.84488309  0.02664706    -0.07300
C681        C  0.40088532  0.83747309  0.99586420    -0.18500
C682        C  0.38587882  0.83728708  0.96384474     0.09900
S683        S  0.32902662  0.85814037  0.06191372    -0.33500
S684        S  0.40929951  0.82742714  0.92690809    -0.33500
H685        H  0.38635703  0.80403499  0.90873988     0.27900
H686        H  0.30046168  0.86421519  0.04538820     0.27900
H687        H  0.31269389  0.85452681  0.99114542     0.18500
H688        H  0.42571182  0.83322911  0.99646556     0.18500
C689        C  0.38741320  0.33795309  0.96065470    -0.07300
C690        C  0.40264519  0.33371426  0.99245164    -0.18500
C691        C  0.38654433  0.33257469  0.02346656     0.09900
C692        C  0.35395071  0.33408548  0.02318854    -0.07300
C693        C  0.33878944  0.33274680  0.99108293    -0.18500
C694        C  0.35490768  0.33552697  0.96016399     0.09900
S695        S  0.40818833  0.33314637  0.06293746    -0.33500
S696        S  0.33341922  0.34045579  0.92088680    -0.33500
H697        H  0.30369979  0.34016956  0.93496856     0.27900
H698        H  0.43780975  0.33614804  0.04885405     0.27900
H699        H  0.42761435  0.33452138  0.99322581     0.18500
H700        H  0.31381938  0.33285362  0.99023194     0.18500
C701        C  0.22725798  0.51127589  0.96887917    -0.07300
C702        C  0.23798778  0.53954019  0.99498975    -0.18500
C703        C  0.26214311  0.52722664  0.01641134     0.09900
C704        C  0.27617171  0.48616352  0.01118062    -0.07300
C705        C  0.26733637  0.45962926  0.98348610    -0.18500
C706        C  0.24188033  0.47018411  0.96379115     0.09900
S707        S  0.27331039  0.56277760  0.05160080    -0.33500
S708        S  0.22846246  0.42802737  0.93453408    -0.33500
H709        H  0.19704820  0.43545088  0.94154961     0.27900
H710        H  0.24970060  0.59395148  0.04761174     0.27900
H711        H  0.22763399  0.57154079  0.99850225     0.18500
H712        H  0.27763578  0.42742948  0.98025039     0.18500
C713        C  0.40073236  0.47680586  0.10963257    -0.07300
C714        C  0.42310180  0.46233164  0.13279390    -0.18500
C715        C  0.45199406  0.48248300  0.13554202     0.09900
C716        C  0.45952696  0.51670502  0.11327809    -0.07300
C717        C  0.43647215  0.53206926  0.09098557    -0.18500
C718        C  0.40736540  0.51261392  0.08894170     0.09900
S719        S  0.47736799  0.46371571  0.16877941    -0.33500
S720        S  0.38044607  0.53319814  0.05786161    -0.33500
H721        H  0.36862104  0.49186714  0.04838873     0.27900
H722        H  0.48633803  0.50615758  0.17908085     0.27900
H723        H  0.41761072  0.43599541  0.14976496     0.18500
H724        H  0.44145887  0.55824462  0.07371982     0.18500
C725        C  0.20615129  0.45838858  0.10768740    -0.07300
C726        C  0.19770180  0.48404375  0.13578902    -0.18500
C727        C  0.16931234  0.50558887  0.13674396     0.09900
C728        C  0.14900729  0.50285239  0.10820892    -0.07300
C729        C  0.15761834  0.47695961  0.08002786    -0.18500
C730        C  0.18584990  0.45471536  0.07949425     0.09900
S731        S  0.16065385  0.53502156  0.17559690    -0.33500
S732        S  0.19593537  0.42576588  0.04090772    -0.33500
H733        H  0.20428806  0.38718413  0.05750614     0.27900
H734        H  0.13112065  0.51673080  0.17807592     0.27900
H735        H  0.21354201  0.48753879  0.15716179     0.18500
H736        H  0.14256201  0.47472137  0.05792456     0.18500
C737        C  0.34055117  0.98388676  0.11478955    -0.07300
C738        C  0.33232227  0.01173643  0.08818860    -0.18500
C739        C  0.30377578  0.03324749  0.08759839     0.09900
C740        C  0.28272399  0.02657895  0.11410315    -0.07300
C741        C  0.29090557  0.99940857  0.14095060    -0.18500
C742        C  0.31982244  0.97874284  0.14209048     0.09900
S743        S  0.29371914  0.06646583  0.05161760    -0.33500
S744        S  0.33006101  0.94785424  0.17929211    -0.33500
H745        H  0.30327063  0.95699500  0.19808679     0.27900
H746        H  0.32247490  0.06413391  0.03536994     0.27900
H747        H  0.34812702  0.01601943  0.06740164     0.18500
H748        H  0.27446144  0.99448247  0.16105270     0.18500
C749        C  0.02656810  0.98580616  0.11789223    -0.07300
C750        C  0.03071247  0.02997805  0.11063823    -0.18500
C751        C  0.06011464  0.04868856  0.11082570     0.09900
C752        C  0.08636448  0.02232867  0.11814212    -0.07300
C753        C  0.08164470  0.97861730  0.12732183    -0.18500
C754        C  0.05204253  0.96064725  0.12820845     0.09900
S755        S  0.06190766  0.10615631  0.10150016    -0.33500
S756        S  0.04802349  0.90685848  0.14535968    -0.33500
H757        H  0.01711139  0.91150668  0.15544615     0.27900
H758        H  0.08316642  0.10022710  0.07501567     0.27900
H759        H  0.01094019  0.04978487  0.10374083     0.18500
H760        H  0.10103830  0.95851858  0.13492963     0.18500
C761        C  0.22827679  0.20798466  0.14281585    -0.07300
C762        C  0.26060282  0.20299213  0.14241188    -0.18500
C763        C  0.28044733  0.23932650  0.14311462     0.09900
C764        C  0.26788255  0.28192190  0.14362906    -0.07300
C765        C  0.23572378  0.28677711  0.14706783    -0.18500
C766        C  0.21590034  0.25043961  0.14694243     0.09900
S767        S  0.32120071  0.22942270  0.13835108    -0.33500
S768        S  0.17495127  0.26063767  0.14672722    -0.33500
H769        H  0.16767197  0.22456138  0.16668653     0.27900
H770        H  0.33062127  0.26699691  0.15673155     0.27900
H771        H  0.27040847  0.17057945  0.13891742     0.18500
H772        H  0.22572246  0.31930880  0.14676627     0.18500
C773        C  0.10296215  0.15305150  0.96219147    -0.07300
C774        C  0.11354525  0.11245399  0.97315651    -0.18500
C775        C  0.12685677  0.10697726  0.00520977     0.09900
C776        C  0.13295210  0.14340618  0.02714200    -0.07300
C777        C  0.12243188  0.18475379  0.01643917    -0.18500
C778        C  0.10668233  0.18964899  0.98470436     0.09900
S779        S  0.13290838  0.05120768  0.01738448    -0.33500
S780        S  0.09156609  0.24285958  0.97472439    -0.33500
H781        H  0.08655260  0.23461758  0.93988081     0.27900
H782        H  0.12938643  0.05922139  0.05223199     0.27900
H783        H  0.10912562  0.08356379  0.95740329     0.18500
H784        H  0.12662005  0.21325612  0.03257722     0.18500
C785        C  0.25868929  0.97836061  0.97795862    -0.07300
C786        C  0.25234048  0.94905127  0.00406948    -0.18500
C787        C  0.22640800  0.95459147  0.02436272     0.09900
C788        C  0.20655991  0.99015808  0.01867546    -0.07300
C789        C  0.20996483  0.01468072  0.98939452    -0.18500
C790        C  0.23703381  0.01202586  0.97093596     0.09900
S791        S  0.22177608  0.91887793  0.05977533    -0.33500
S792        S  0.24310590  0.05547885  0.94135882    -0.33500
H793        H  0.27330722  0.06414473  0.95315203     0.27900
H794        H  0.18954883  0.92409458  0.06138547     0.27900
H795        H  0.26773997  0.92185121  0.00890747     0.18500
H796        H  0.19478010  0.04236924  0.98525540     0.18500
C797        C  0.35936192  0.64385954  0.45975783    -0.07300
C798        C  0.37074097  0.60407736  0.47170923    -0.18500
C799        C  0.38503363  0.60059560  0.50351484     0.09900
C800        C  0.39028559  0.63819072  0.52443810    -0.07300
C801        C  0.37966350  0.67877782  0.51233057    -0.18500
C802        C  0.36375597  0.68187808  0.48059671     0.09900
S803        S  0.39395455  0.54586423  0.51662960    -0.33500
S804        S  0.34961543  0.73497461  0.46860806    -0.33500
H805        H  0.33624897  0.72280890  0.43723531     0.27900
H806        H  0.38935379  0.55416468  0.55125722     0.27900
H807        H  0.36648312  0.57434369  0.45689564     0.18500
H808        H  0.38381478  0.70814147  0.52750546     0.18500
C809        C  0.28009557  0.49125141  0.46406668    -0.07300
C810        C  0.25743073  0.46097987  0.45381003    -0.18500
C811        C  0.23279743  0.45161312  0.47510413     0.09900
C812        C  0.23167688  0.47231535  0.50736291    -0.07300
C813        C  0.25619942  0.49922871  0.51844121    -0.18500
C814        C  0.28058792  0.50829451  0.49724630     0.09900
S815        S  0.20180541  0.41688215  0.45966262    -0.33500
S816        S  0.31043353  0.54590130  0.51104699    -0.33500
H817        H  0.30177293  0.54887250  0.54536568     0.27900
H818        H  0.21463924  0.40644551  0.42783273     0.27900
H819        H  0.25694470  0.44916681  0.42768143     0.18500
H820        H  0.25632826  0.51343864  0.54382626     0.18500
C821        C  0.39994272  0.51290703  0.36810646    -0.07300
C822        C  0.40219094  0.46890844  0.37761314    -0.18500
C823        C  0.43075268  0.44701827  0.37875272     0.09900
C824        C  0.45798663  0.46963948  0.37016454    -0.07300
C825        C  0.45546873  0.51298364  0.35917335    -0.18500
C826        C  0.42702867  0.53489707  0.35815211     0.09900
S827        S  0.43169354  0.38997908  0.39011520    -0.33500
S828        S  0.42593013  0.59035784  0.34291695    -0.33500
H829        H  0.45787609  0.59571296  0.33850464     0.27900
H830        H  0.39976572  0.38470669  0.39471715     0.27900
H831        H  0.38142830  0.45175587  0.38462053     0.18500
H832        H  0.47615464  0.53036482  0.35224753     0.18500
C833        C  0.14561266  0.49453988  0.37171025    -0.07300
C834        C  0.15434801  0.52148397  0.39942496    -0.18500
C835        C  0.18341475  0.54142756  0.40090195     0.09900
C836        C  0.20440609  0.53467791  0.37405540    -0.07300
C837        C  0.19555891  0.50858878  0.34607383    -0.18500
C838        C  0.16635244  0.48931262  0.34419568     0.09900
S839        S  0.19372761  0.57095369  0.43930839    -0.33500
S840        S  0.15696601  0.45965838  0.30544666    -0.33500
H841        H  0.12722309  0.47782905  0.30278189     0.27900
H842        H  0.20078110  0.60962448  0.42228039     0.27900
H843        H  0.13884245  0.52602846  0.42062768     0.18500
H844        H  0.21163277  0.50314244  0.32546347     0.18500
C845        C  0.31718094  0.52332306  0.27078231    -0.07300
C846        C  0.31051155  0.47793074  0.27004735    -0.18500
C847        C  0.31126117  0.45261393  0.24000636     0.09900
C848        C  0.31966227  0.47233645  0.20957612    -0.07300
C849        C  0.32775098  0.51712321  0.21033498    -0.18500
C850        C  0.32652483  0.54274199  0.24038234     0.09900
S851        S  0.29976700  0.39606057  0.24197377    -0.33500
S852        S  0.33557150  0.60003810  0.23778075    -0.33500
H853        H  0.31185079  0.61408118  0.25960009     0.27900
H854        H  0.28502881  0.39405492  0.21001883     0.27900
H855        H  0.30393315  0.46185545  0.29316209     0.18500
H856        H  0.33408919  0.53270207  0.18690907     0.18500
C857        C  0.28752581  0.95312751  0.37706561    -0.07300
C858        C  0.29737763  0.97620367  0.34895923    -0.18500
C859        C  0.32618661  0.99637544  0.34878740     0.09900
C860        C  0.34532763  0.99554158  0.37820289    -0.07300
C861        C  0.33567622  0.97158424  0.40621307    -0.18500
C862        C  0.30709600  0.95023360  0.40587895     0.09900
S863        S  0.33720667  0.02139589  0.30972207    -0.33500
S864        S  0.29554548  0.92378610  0.44416974    -0.33500
H865        H  0.28701324  0.88463434  0.42734763     0.27900
H866        H  0.36675691  0.00241854  0.31011736     0.27900
H867        H  0.28232468  0.97890696  0.32703560     0.18500
H868        H  0.35001965  0.97057766  0.42888093     0.18500
C869        C  0.09248959  0.98096248  0.37238242    -0.07300
C870        C  0.08969074  0.02315309  0.38669044    -0.18500
C871        C  0.06098650  0.04415268  0.38880954     0.09900
C872        C  0.03399411  0.02209097  0.37719809    -0.07300
C873        C  0.03711818  0.98032176  0.36207900    -0.18500
C874        C  0.06583220  0.96004306  0.35896224     0.09900
S875        S  0.06085406  0.09927579  0.40578860    -0.33500
S876        S  0.06674859  0.90827815  0.33625054    -0.33500
H877        H  0.09317370  0.91866333  0.31753754     0.27900
H878        H  0.04037528  0.11462106  0.38082993     0.27900
H879        H  0.11004260  0.03993673  0.39640132     0.18500
H880        H  0.01695512  0.96290482  0.35258752     0.18500
C881        C  0.17607529  0.96651640  0.27197600    -0.07300
C882        C  0.14765635  0.98096519  0.25853635    -0.18500
C883        C  0.14628408  0.01095899  0.23156996     0.09900
C884        C  0.17384318  0.02806392  0.21784219    -0.07300
C885        C  0.20205474  0.01312642  0.23126962    -0.18500
C886        C  0.20347262  0.98239121  0.25720482     0.09900
S887        S  0.10883421  0.02382670  0.21423406    -0.33500
S888        S  0.24134294  0.96339718  0.26950253    -0.33500
H889        H  0.23160384  0.92243809  0.28103400     0.27900
H890        H  0.11498997  0.06861159  0.21081733     0.27900
H891        H  0.12637421  0.96997964  0.26979941     0.18500
H892        H  0.22345329  0.02363576  0.21993227     0.18500
C893        C  0.22322132  0.78073244  0.34223614    -0.07300
C894        C  0.25538208  0.78596126  0.33939906    -0.18500
C895        C  0.27568558  0.75009213  0.34058092     0.09900
C896        C  0.26377008  0.70762636  0.34460917    -0.07300
C897        C  0.23148317  0.70205373  0.34441440    -0.18500
C898        C  0.21118596  0.73794070  0.34319896     0.09900
S899        S  0.31645510  0.76136360  0.34248737    -0.33500
S900        S  0.17053491  0.72749612  0.34796801    -0.33500
H901        H  0.16047453  0.76496579  0.33095391     0.27900
H902        H  0.32523838  0.72345017  0.32431046     0.27900
H903        H  0.26497485  0.81870542  0.33960691     0.18500
H904        H  0.22201269  0.66968396  0.34802687     0.18500
C905        C  0.13698755  0.83975853  0.46145060    -0.07300
C906        C  0.15210594  0.84139106  0.49359966    -0.18500
C907        C  0.13592565  0.84257162  0.52463203     0.09900
C908        C  0.10335388  0.84082860  0.52438072    -0.07300
C909        C  0.08838230  0.83502811  0.49244198    -0.18500
C910        C  0.10457443  0.83430341  0.46142712     0.09900
S911        S  0.15721274  0.85114559  0.56388368    -0.33500
S912        S  0.08215471  0.82985213  0.42283977    -0.33500
H913        H  0.10155619  0.79783897  0.40821090     0.27900
H914        H  0.18693271  0.85232057  0.54985107     0.27900
H915        H  0.17695727  0.84466057  0.49451108     0.18500
H916        H  0.06341396  0.83326416  0.49142313     0.18500
C917        C  0.21608299  0.99446821  0.47074007    -0.07300
C918        C  0.21699523  0.97151830  0.50102545    -0.18500
C919        C  0.24085611  0.97790662  0.52427987     0.09900
C920        C  0.26296859  0.01114600  0.51867202    -0.07300
C921        C  0.26054960  0.03626644  0.48924901    -0.18500
C922        C  0.23739566  0.02812647  0.46515825     0.09900
S923        S  0.24194989  0.94069861  0.55927271    -0.33500
S924        S  0.23681035  0.05821344  0.42609774    -0.33500
H925        H  0.26307657  0.08398622  0.43299747     0.27900
H926        H  0.27326168  0.92998854  0.55452636     0.27900
H927        H  0.20126236  0.94437357  0.50443902     0.18500
H928        H  0.27686122  0.06239812  0.48513707     0.18500
O929        O  0.69697824  0.96644133  0.33077755    -0.83000
C930        C  0.65550637  0.85740252  0.43460013     0.96300
O931        O  0.64794984  0.85088644  0.40339874    -0.72100
O932        O  0.62555861  0.92186228  0.37765505    -0.75700
Al933      Al  0.65799726  0.88598731  0.36278057     1.49000
C934        C  0.62298127  0.96228911  0.37360380     0.91600
O935        O  0.68256548  0.99044765  0.42254868    -0.81900
O936        O  0.74751492  0.90893410  0.38842577    -0.75500
Al937      Al  0.68957008  0.97516344  0.37664375     1.90100
O938        O  0.71612457  0.94273269  0.44164093    -0.74600
O939        O  0.71422666  0.83747583  0.39197716    -0.74400
O940        O  0.68018771  0.87714077  0.44169463    -0.80100
O941        O  0.68773979  0.84477808  0.34489942    -0.78300
O942        O  0.68653296  0.91805039  0.38402921    -1.14400
O943        O  0.66085750  0.91794881  0.31918999    -0.73600
C944        C  0.67883284  0.94851269  0.30981995     0.97100
C945        C  0.70071280  0.97742874  0.44525034     0.93500
Al946      Al  0.71224646  0.89333183  0.41342171     1.55600
O947        O  0.64649599  0.98557274  0.36892765    -0.78200
C948        C  0.70773159  0.82473277  0.36224930     0.97700
C949        C  0.75436906  0.94837872  0.38350274     0.92500
O950        O  0.73364876  0.97758905  0.38232818    -0.83600
O951        O  0.79350239  0.52987591  0.32677543    -0.83000
C952        C  0.83359738  0.64192498  0.43252764     0.96300
O953        O  0.84106145  0.64845402  0.40170248    -0.72100
O954        O  0.86432023  0.57690464  0.37535791    -0.75700
Al955      Al  0.83124175  0.61229131  0.36062124     1.49000
C956        C  0.86693821  0.53617769  0.37146717     0.91600
O957        O  0.80561823  0.50950030  0.41932553    -0.81900
O958        O  0.74118868  0.58946128  0.38429484    -0.75500
Al959      Al  0.79993346  0.52328954  0.37316729     1.90100
O960        O  0.77232534  0.55835731  0.43796078    -0.74600
O961        O  0.77469449  0.66142444  0.38934479    -0.74400
O962        O  0.80849501  0.62385343  0.43929632    -0.80100
O963        O  0.80118872  0.65304080  0.34269856    -0.78300
O964        O  0.80267408  0.58072845  0.38110599    -1.14400
O965        O  0.82884285  0.57901966  0.31673019    -0.73600
C966        C  0.81206128  0.54690687  0.30665570     0.97100
C967        C  0.78664839  0.52294514  0.44111998     0.93500
Al968      Al  0.77656693  0.60652936  0.41019116     1.55600
O969        O  0.84322646  0.51272548  0.36728471    -0.78200
C970        C  0.78110660  0.67343586  0.35996172     0.97700
C971        C  0.73489639  0.54960107  0.37863262     0.92500
O972        O  0.75601993  0.52105926  0.37691513    -0.83600
O973        O  0.68993587  0.02538189  0.16520977    -0.83000
C974        C  0.65552975  0.13677097  0.06088316     0.96300
O975        O  0.64786960  0.14603606  0.09168486    -0.72100
O976        O  0.62404759  0.07891678  0.12178711    -0.75700
Al977      Al  0.65804413  0.11296654  0.13407977     1.49000
C978        C  0.62019251  0.03839601  0.11979139     0.91600
O979        O  0.68368659  0.00714193  0.07157661    -0.81900
O980        O  0.74622859  0.08726925  0.11253633    -0.75500
Al981      Al  0.68666157  0.02112421  0.11854079     1.90100
O982        O  0.71878416  0.05408296  0.05709171    -0.74600
O983        O  0.71369220  0.15999847  0.10417624    -0.74400
O984        O  0.68084713  0.11819575  0.05474315    -0.80100
O985        O  0.68897614  0.15340067  0.15146217    -0.78300
O986        O  0.68539024  0.07886912  0.11285789    -1.14400
O987        O  0.66138381  0.08277066  0.17793334    -0.73600
C988        C  0.67521687  0.04774819  0.18653361     0.97100
C989        C  0.70404002  0.01951852  0.05149036     0.93500
Al990      Al  0.71231136  0.10312983  0.08476228     1.55600
O991        O  0.64309774  0.01288184  0.12040419    -0.78200
C992        C  0.70865696  0.17285956  0.13394443     0.97700
C993        C  0.75208626  0.04732358  0.11775000     0.92500
O994        O  0.73086751  0.01875973  0.11817985    -0.83600
O995        O  0.79927760  0.46346757  0.16032789    -0.83000
C996        C  0.83750938  0.34907093  0.05538000     0.96300
O997        O  0.84661006  0.34408251  0.08620080    -0.72100
O998        O  0.86922043  0.41581186  0.11386222    -0.75700
Al999      Al  0.83669925  0.37969093  0.12802186     1.49000
C1000       C  0.87070894  0.45684143  0.11444205     0.91600
O1001       O  0.80757396  0.47967846  0.06730080    -0.81900
O1002       O  0.74586917  0.39904450  0.10585340    -0.75500
Al1003     Al  0.80368206  0.46774763  0.11381255     1.90100
O1004       O  0.77393868  0.43019038  0.05077149    -0.74600
O1005       O  0.78034839  0.32806535  0.10029047    -0.74400
O1006       O  0.81173770  0.36644098  0.04971587    -0.80100
O1007       O  0.80764465  0.33841700  0.14642616    -0.78300
O1008       O  0.80717854  0.41017183  0.10733306    -1.14400
O1009       O  0.83362577  0.41268110  0.17189107    -0.73600
C1010       C  0.81635913  0.44453566  0.18129803     0.97100
C1011       C  0.78815208  0.46525990  0.04613194     0.93500
Al1012     Al  0.78051371  0.38292987  0.07920704     1.55600
O1013       O  0.84677078  0.47986965  0.11781991    -0.78200
C1014       C  0.78694928  0.31771701  0.13011707     0.97700
C1015       C  0.73878268  0.43873264  0.11088832     0.92500
O1016       O  0.75937371  0.46815398  0.11134190    -0.83600
O1017       O  0.47574999  0.97981534  0.12669849    -0.83000
C1018       C  0.90374823  0.85282582  0.05681820     0.96300
O1019       O  0.93296833  0.85313909  0.05628615    -0.72100
O1020       O  0.94500776  0.93136794  0.04014688    -0.75700
Al1021     Al  0.96039528  0.89731165  0.07512782     1.49000
C1022       C  0.95085412  0.97121301  0.04043002     0.91600
O1023       O  0.89089937  0.97958674  0.09465395    -0.81900
O1024       O  0.92307558  0.90855889  0.17141404    -0.75500
Al1025     Al  0.93204976  0.97797976  0.11049172     1.90100
O1026       O  0.87503523  0.92704984  0.12739405    -0.74600
O1027       O  0.93734160  0.83504209  0.13005024    -0.74400
O1028       O  0.89041884  0.86445867  0.08409788    -0.80100
O1029       O  0.97855047  0.86027979  0.10639464    -0.78300
O1030       O  0.93409244  0.92007132  0.10461542    -1.14400
O1031       O  0.49435069  0.93594497  0.08662538    -0.73600
C1032       C  0.49820397  0.96463904  0.10996817     0.97100
C1033       C  0.86967430  0.96171260  0.11125400     0.93500
Al1034     Al  0.90858255  0.88575476  0.12666149     1.55600
O1035       O  0.94583313  0.99371119  0.06681697    -0.78200
C1036       C  0.96573706  0.83060427  0.12236189     0.97700
C1037       C  0.92090328  0.94941457  0.17917273     0.92500
O1038       O  0.91920710  0.97701681  0.15594403    -0.83600
O1039       O  0.01429889  0.51652481  0.11960987    -0.83000
C1040       C  0.58966273  0.63809951  0.06148170     0.96300
O1041       O  0.56054132  0.64199858  0.06204651    -0.72100
O1042       O  0.54311015  0.56659916  0.04077396    -0.75700
Al1043     Al  0.53087752  0.60010022  0.07828873     1.49000
C1044       C  0.53422686  0.52788214  0.03856246     0.91600
O1045       O  0.59657882  0.50584717  0.09240507    -0.81900
O1046       O  0.57009167  0.57838986  0.17255223    -0.75500
Al1047     Al  0.55504665  0.51337015  0.10761191     1.90100
O1048       O  0.61540909  0.55626353  0.12694039    -0.74600
O1049       O  0.56018436  0.65499522  0.13555785    -0.74400
O1050       O  0.60316444  0.62214004  0.08719724    -0.80100
O1051       O  0.51563467  0.63724980  0.11294439    -0.78300
O1052       O  0.55664592  0.57171865  0.10541022    -1.14400
O1053       O  0.99578000  0.56621627  0.08534065    -0.73600
C1054       C  0.99154751  0.53519206  0.10575698     0.97100
C1055       C  0.61892366  0.52122436  0.10991010     0.93500
Al1056     Al  0.58490058  0.60123237  0.12891429     1.55600
O1057       O  0.53960614  0.50241733  0.06264115    -0.78200
C1058       C  0.53188386  0.66368179  0.12989891     0.97700
C1059       C  0.56912297  0.53711007  0.17792018     0.92500
O1060       O  0.56814067  0.51025502  0.15330955    -0.83600
O1061       O  0.47969148  0.01908581  0.36899875    -0.83000
C1062       C  0.90288061  0.14288989  0.42945523     0.96300
O1063       O  0.93174948  0.14874299  0.42912131    -0.72100
O1064       O  0.94944784  0.07350430  0.45051388    -0.75700
Al1065     Al  0.96182690  0.10611240  0.41350415     1.49000
C1066       C  0.95756498  0.03435442  0.45175193     0.91600
O1067       O  0.89757073  0.01106941  0.39629601    -0.81900
O1068       O  0.92343565  0.08176068  0.31775136    -0.75500
Al1069     Al  0.93885920  0.01891822  0.38170217     1.90100
O1070       O  0.87792789  0.06053837  0.36273124    -0.74600
O1071       O  0.93356054  0.15847353  0.35498681    -0.74400
O1072       O  0.88964552  0.12712228  0.40313530    -0.80100
O1073       O  0.97722978  0.14208396  0.37973759    -0.78300
O1074       O  0.93662126  0.07698617  0.38510009    -1.14400
O1075       O  0.49562170  0.06627081  0.40810955    -0.73600
C1076       C  0.50136505  0.03728531  0.38559971     0.97100
C1077       C  0.87494748  0.02607749  0.37960947     0.93500
Al1078     Al  0.90841414  0.10554117  0.36142456     1.55600
O1079       O  0.95310076  0.00924987  0.42652809    -0.78200
C1080       C  0.96190672  0.16679393  0.36089094     0.97700
C1081       C  0.92534778  0.04057214  0.31150741     0.92500
O1082       O  0.92664349  0.01438093  0.33572720    -0.83600
O1083       O  0.00985957  0.47293220  0.35975310    -0.83000
C1084       C  0.58825748  0.34802306  0.42563990     0.96300
O1085       O  0.55922650  0.34345485  0.42410421    -0.72100
O1086       O  0.54170516  0.41936442  0.44450714    -0.75700
Al1087     Al  0.52955463  0.38519529  0.40713335     1.49000
C1088       C  0.53431700  0.45886222  0.44561967     0.91600
O1089       O  0.59434276  0.47839394  0.39172362    -0.81900
O1090       O  0.56904905  0.40320612  0.31263907    -0.75500
Al1091     Al  0.55315843  0.47010328  0.37584787     1.90100
O1092       O  0.61437821  0.42718768  0.35896996    -0.74600
O1093       O  0.55843494  0.32839379  0.35069496    -0.74400
O1094       O  0.60194161  0.36258957  0.39983092    -0.80100
O1095       O  0.51442556  0.34782081  0.37292818    -0.78300
O1096       O  0.55521711  0.41230748  0.37957505    -1.14400
O1097       O  0.99404122  0.42766918  0.39848749    -0.73600
C1098       C  0.98820808  0.45615956  0.37638116     0.97100
C1099       C  0.61714149  0.46269583  0.37575009     0.93500
Al1100     Al  0.58367127  0.38201715  0.35716394     1.55600
O1101       O  0.53872642  0.48222408  0.42028277    -0.78200
C1102       C  0.52997159  0.32080063  0.35591996     0.97700
C1103       C  0.56682646  0.44406793  0.30620102     0.92500
O1104       O  0.56572052  0.47172124  0.33024116    -0.83600
O1105       O  0.76142386  0.02322165  0.62710957    -0.83000
C1106       C  0.84076545  0.13794432  0.56171353     0.96300
O1107       O  0.81182738  0.14298337  0.56091528    -0.72100
O1108       O  0.79408204  0.06576212  0.54215412    -0.75700
Al1109     Al  0.78132093  0.10276037  0.57754384     1.49000
C1110       C  0.78404973  0.02744141  0.54193129     0.91600
O1111       O  0.84343212  0.00826045  0.59759009    -0.81900
O1112       O  0.81818565  0.08558427  0.67463411    -0.75500
Al1113     Al  0.80258462  0.01818622  0.61201475     1.90100
O1114       O  0.86397660  0.05979354  0.63006325    -0.74600
O1115       O  0.80858103  0.15928720  0.63657670    -0.74400
O1116       O  0.85338002  0.12430699  0.58875430    -0.80100
O1117       O  0.76575536  0.14246309  0.60955958    -0.78300
O1118       O  0.80564654  0.07589326  0.60725493    -1.14400
O1119       O  0.74568973  0.06781449  0.58751500    -0.73600
C1120       C  0.73978877  0.03975700  0.60974129     0.97100
C1121       C  0.86653301  0.02435508  0.61304591     0.93500
Al1122     Al  0.83381260  0.10571801  0.63072831     1.55600
O1123       O  0.78801716  0.00460009  0.56765276    -0.78200
C1124       C  0.78027590  0.16701971  0.62988627     0.97700
C1125       C  0.81562573  0.04500326  0.68143507     0.92500
O1126       O  0.81492633  0.01692726  0.65776278    -0.83600
O1127       O  0.73196425  0.46897416  0.62505654    -0.83000
C1128       C  0.65314254  0.34980264  0.55840873     0.96300
O1129       O  0.68214006  0.34523930  0.55883670    -0.72100
O1130       O  0.69971726  0.42088657  0.53917017    -0.75700
Al1131     Al  0.71229799  0.38668406  0.57567628     1.49000
C1132       C  0.70794443  0.46002872  0.53884108     0.91600
O1133       O  0.64953544  0.48270553  0.59420389    -0.81900
O1134       O  0.67422050  0.40915366  0.67181554    -0.75500
Al1135     Al  0.69071804  0.47315977  0.60925437     1.90100
O1136       O  0.62909616  0.43204527  0.62579128    -0.74600
O1137       O  0.68474580  0.33341057  0.63419877    -0.74400
O1138       O  0.64034216  0.36531862  0.58489638    -0.80100
O1139       O  0.72777131  0.34934625  0.60863540    -0.78300
O1140       O  0.68766093  0.41525439  0.60457424    -1.14400
O1141       O  0.74788317  0.42244561  0.58588087    -0.73600
C1142       C  0.75368257  0.45151803  0.60833356     0.97100
C1143       C  0.62656571  0.46711718  0.60939208     0.93500
Al1144     Al  0.65936610  0.38649306  0.62736132     1.55600
O1145       O  0.70486443  0.48399422  0.56488286    -0.78200
C1146       C  0.71316308  0.32563262  0.62848975     0.97700
C1147       C  0.67679304  0.45006954  0.67871585     0.92500
O1148       O  0.67871061  0.47683171  0.65502313    -0.83600
O1149       O  0.76097930  0.97668089  0.86451737    -0.83000
C1150       C  0.83752895  0.85258344  0.92587555     0.96300
O1151       O  0.80842866  0.84891857  0.92501261    -0.72100
O1152       O  0.79089768  0.92440797  0.94784029    -0.75700
Al1153     Al  0.77870120  0.89134301  0.90952288     1.49000
C1154       C  0.78329581  0.96388209  0.94963884     0.91600
O1155       O  0.84398697  0.98418406  0.89593154    -0.81900
O1156       O  0.81689540  0.91287911  0.81526768    -0.75500
Al1157     Al  0.80255515  0.97750905  0.88033248     1.90100
O1158       O  0.86325599  0.93473971  0.86087036    -0.74600
O1159       O  0.80691205  0.83676492  0.85129992    -0.74400
O1160       O  0.85097194  0.86844475  0.90038988    -0.80100
O1161       O  0.76323031  0.85513301  0.87462562    -0.78300
O1162       O  0.80419938  0.91947698  0.88243092    -1.14400
O1163       O  0.74378270  0.92826245  0.90007657    -0.73600
C1164       C  0.73872677  0.95901682  0.87962417     0.97100
C1165       C  0.86659606  0.96861148  0.87954142     0.93500
Al1166     Al  0.83220304  0.88988714  0.85870359     1.55600
O1167       O  0.78840895  0.98811516  0.92501898    -0.78200
C1168       C  0.77855342  0.82891779  0.85662967     0.97700
C1169       C  0.81580568  0.95409074  0.81004994     0.92500
O1170       O  0.81491133  0.98086023  0.83469462    -0.83600
O1171       O  0.72753080  0.52151554  0.85924034    -0.83000
C1172       C  0.65419493  0.64295279  0.93048585     0.96300
O1173       O  0.68336651  0.64519832  0.93030442    -0.72100
O1174       O  0.70191867  0.56865749  0.94698074    -0.75700
Al1175     Al  0.71245138  0.60427740  0.91075184     1.49000
C1176       C  0.70956492  0.52918316  0.94592958     0.91600
O1177       O  0.64653326  0.51326017  0.89427260    -0.81900
O1178       O  0.67113739  0.58591181  0.81584967    -0.75500
Al1179     Al  0.68701964  0.51980490  0.87698082     1.90100
O1180       O  0.62640571  0.56451503  0.86245784    -0.74600
O1181       O  0.68294782  0.66061575  0.85447248    -0.74400
O1182       O  0.64030784  0.62959327  0.90370455    -0.80100
O1183       O  0.72674683  0.64341112  0.87839774    -0.78300
O1184       O  0.68592140  0.57781471  0.88247548    -1.14400
O1185       O  0.74654796  0.56778920  0.89731882    -0.73600
C1186       C  0.75046055  0.53781321  0.87500809     0.97100
C1187       C  0.62350595  0.53006556  0.87937249     0.93500
Al1188     Al  0.65752282  0.60843283  0.86075312     1.55600
O1189       O  0.70366749  0.50664344  0.91987807    -0.78200
C1190       C  0.71127547  0.66867562  0.86016302     0.97700
C1191       C  0.67157450  0.54489927  0.80857159     0.92500
O1192       O  0.67197476  0.51764143  0.83200384    -0.83600
O1193       O  0.54804339  0.97056133  0.66536613    -0.83000
C1194       C  0.58221850  0.85813953  0.55717024     0.96300
O1195       O  0.59066412  0.85137489  0.58786550    -0.72100
O1196       O  0.61621810  0.92065226  0.61608900    -0.75700
Al1197     Al  0.58261807  0.88623032  0.62995250     1.49000
C1198       C  0.61917872  0.96141067  0.61924919     0.91600
O1199       O  0.55797665  0.99163497  0.57300148    -0.81900
O1200       O  0.99361601  0.90870242  0.60406202    -0.75500
Al1201     Al  0.55297120  0.97747972  0.61898159     1.90100
O1202       O  0.52265933  0.94547123  0.55456504    -0.74600
O1203       O  0.52386187  0.84101531  0.60164353    -0.74400
O1204       O  0.55731564  0.87800257  0.55145005    -0.80100
O1205       O  0.55230294  0.84616315  0.64746484    -0.78300
O1206       O  0.55427341  0.91998999  0.61048364    -1.14400
O1207       O  0.58137077  0.91744500  0.67428701    -0.73600
C1208       C  0.56543882  0.94989167  0.68502789     0.97100
C1209       C  0.53867420  0.97923350  0.55095182     0.93500
Al1210     Al  0.52665575  0.89642545  0.58172235     1.55600
O1211       O  0.59613738  0.98574833  0.62398896    -0.78200
C1212       C  0.53081390  0.82778457  0.63068173     0.97700
C1213       C  0.98771349  0.94837874  0.61088203     0.92500
O1214       O  0.00868915  0.97704869  0.61098186    -0.83600
O1215       O  0.94624769  0.52785370  0.66312882    -0.83000
C1216       C  0.90709295  0.63321314  0.55628151     0.96300
O1217       O  0.89848510  0.64156347  0.58671450    -0.72100
O1218       O  0.87616327  0.57197678  0.61494365    -0.75700
Al1219     Al  0.90871402  0.60918364  0.62879200     1.49000
C1220       C  0.87430435  0.53125534  0.61790170     0.91600
O1221       O  0.93684778  0.50366563  0.57003501    -0.81900
O1222       O  0.50179223  0.59108727  0.61168788    -0.75500
Al1223     Al  0.94117443  0.51951064  0.61669833     1.90100
O1224       O  0.97039157  0.55222063  0.55342777    -0.74600
O1225       O  0.96600730  0.65752111  0.60154992    -0.74400
O1226       O  0.93313901  0.61639671  0.55087791    -0.80100
O1227       O  0.93742827  0.65258440  0.64658435    -0.78300
O1228       O  0.93810655  0.57674829  0.60918057    -1.14400
O1229       O  0.91187132  0.57964499  0.67293347    -0.73600
C1230       C  0.92868765  0.54809663  0.68312647     0.97100
C1231       C  0.95555395  0.51747350  0.54845797     0.93500
Al1232     Al  0.96485019  0.60135842  0.58107497     1.55600
O1233       O  0.89824083  0.50835797  0.62133235    -0.78200
C1234       C  0.95784342  0.67213635  0.63000379     0.97700
C1235       C  0.50876110  0.55190033  0.61828246     0.92500
O1236       O  0.48827900  0.52250142  0.61941249    -0.83600
O1237       O  0.54558444  0.02949263  0.83354988    -0.83000
C1238       C  0.58403313  0.14762723  0.93566205     0.96300
O1239       O  0.59279469  0.15157661  0.90496549    -0.72100
O1240       O  0.61530902  0.07898589  0.87965530    -0.75700
Al1241     Al  0.58251199  0.11460167  0.86447683     1.49000
C1242       C  0.61712271  0.03798250  0.87953147     0.91600
O1243       O  0.55390704  0.01632112  0.92721933    -0.81900
O1244       O  0.99081894  0.09255132  0.88201884    -0.75500
Al1245     Al  0.55003623  0.02680089  0.88034902     1.90100
O1246       O  0.52135945  0.06776821  0.94258041    -0.74600
O1247       O  0.52486094  0.16617337  0.88966320    -0.74400
O1248       O  0.55791077  0.13237201  0.94199910    -0.80100
O1249       O  0.55364345  0.15585512  0.84505182    -0.78300
O1250       O  0.55312885  0.08485222  0.88562990    -1.14400
O1251       O  0.57935507  0.08007494  0.82157391    -0.73600
C1252       C  0.56306547  0.04704827  0.81254376     0.97100
C1253       C  0.53483735  0.03224895  0.94783371     0.93500
Al1254     Al  0.52648141  0.11320291  0.91291486     1.55600
O1255       O  0.59319816  0.01480107  0.87709838    -0.78200
C1256       C  0.53255197  0.17661504  0.86035778     0.97700
C1257       C  0.98525586  0.05215737  0.87811284     0.92500
O1258       O  0.00655901  0.02386142  0.87980801    -0.83600
O1259       O  0.94657238  0.46896390  0.82873116    -0.83000
C1260       C  0.90817727  0.35501822  0.93095108     0.96300
O1261       O  0.89956527  0.35041837  0.89987982    -0.72100
O1262       O  0.87534420  0.42109400  0.87393750    -0.75700
Al1263     Al  0.90902506  0.38626947  0.85945816     1.49000
C1264       C  0.87259361  0.46180515  0.87121191     0.91600
O1265       O  0.93149627  0.49044960  0.92049936    -0.81900
O1266       O  0.49702676  0.41487932  0.89045824    -0.75500
Al1267     Al  0.93886729  0.47662679  0.87458266     1.90100
O1268       O  0.96546201  0.44318591  0.93956892    -0.74600
O1269       O  0.96856307  0.34086293  0.88647427    -0.74400
O1270       O  0.93299159  0.37437529  0.93784371    -0.80100
O1271       O  0.93932135  0.34583822  0.84119628    -0.78300
O1272       O  0.93712429  0.41908229  0.88117910    -1.14400
O1273       O  0.91180686  0.41890276  0.81623785    -0.73600
C1274       C  0.92892803  0.45070325  0.80737537     0.97100
C1275       C  0.94961395  0.47746126  0.94322949     0.93500
Al1276     Al  0.96389927  0.39492753  0.90991595     1.55600
O1277       O  0.89589272  0.48543015  0.86683553    -0.78200
C1278       C  0.96137092  0.32799497  0.85697801     0.97700
C1279       C  0.50283717  0.45464544  0.88623686     0.92500
O1280       O  0.48144751  0.48262152  0.88461983    -0.83600
C1281       C  0.51605096  0.21421588  0.84548573    -0.07300
C1282       C  0.53047476  0.25509427  0.84708720    -0.18500
C1283       C  0.01184684  0.29251618  0.84087544     0.09900
C1284       C  0.97921609  0.29076205  0.84238404    -0.07300
C1285       C  0.96458197  0.25031122  0.83757399    -0.18500
C1286       C  0.98186638  0.21146104  0.83570330     0.09900
S1287       S  0.03168050  0.34435182  0.84269210    -0.33500
S1288       S  0.96101971  0.16064402  0.83174851    -0.33500
H1289       H  0.48879479  0.13704812  0.82376802     0.27900
H1290       H  0.06148047  0.32772816  0.83668054     0.27900
H1291       H  0.55519609  0.25650142  0.85128836     0.18500
H1292       H  0.93960573  0.24856559  0.83813800     0.18500
C1293       C  0.92712496  0.53035042  0.71780973    -0.07300
C1294       C  0.90017391  0.50825260  0.72741309    -0.18500
C1295       C  0.90030676  0.47886549  0.75465333     0.09900
C1296       C  0.92795658  0.47126895  0.77315578    -0.07300
C1297       C  0.95480460  0.49346297  0.76310339    -0.18500
C1298       C  0.95461449  0.52277918  0.73625150     0.09900
S1299       S  0.86442922  0.45300191  0.76499196    -0.33500
S1300       S  0.99051501  0.54945444  0.72638735    -0.33500
H1301       H  0.97711516  0.58605439  0.71086380     0.27900
H1302       H  0.87732441  0.41074162  0.76527460     0.27900
H1303       H  0.87924268  0.51211563  0.71247102     0.18500
H1304       H  0.97621281  0.48900498  0.77710241     0.18500
C1305       C  0.56471019  0.02484577  0.77823765    -0.07300
C1306       C  0.53974535  0.99753908  0.76863397    -0.18500
C1307       C  0.54088783  0.96906926  0.74045652     0.09900
C1308       C  0.56748869  0.96731661  0.72028005    -0.07300
C1309       C  0.59272807  0.99413393  0.72951933    -0.18500
C1310       C  0.59165932  0.02271938  0.75810055     0.09900
S1311       S  0.50726611  0.93600895  0.73111567    -0.33500
S1312       S  0.62553180  0.05469343  0.76779095    -0.33500
H1313       H  0.60920459  0.09451357  0.76893183     0.27900
H1314       H  0.52289357  0.90268566  0.71306943     0.27900
H1315       H  0.51907569  0.99747955  0.78375777     0.18500
H1316       H  0.61285366  0.99446314  0.71336830     0.18500
C1317       C  0.97289575  0.71298365  0.64234697    -0.07300
C1318       C  0.00415899  0.71092879  0.65236700    -0.18500
C1319       C  0.02332077  0.74810557  0.65194173     0.09900
C1320       C  0.51220211  0.79099286  0.64372858    -0.07300
C1321       C  0.47990271  0.79413048  0.63996308    -0.18500
C1322       C  0.96022225  0.75398905  0.63420608     0.09900
S1323       S  0.56612139  0.74225654  0.65662828    -0.33500
S1324       S  0.92071024  0.76021905  0.62029388    -0.33500
H1325       H  0.90895720  0.72587446  0.63950244     0.27900
H1326       H  0.57011267  0.77959532  0.67758351     0.27900
H1327       H  0.01426132  0.67948840  0.65816591     0.18500
H1328       H  0.46959797  0.82544301  0.63400480     0.18500
C1329       C  0.78208622  0.51966446  0.87021581    -0.07300
C1330       C  0.80635832  0.53953187  0.88889038    -0.18500
C1331       C  0.83586874  0.52102460  0.89012396     0.09900
C1332       C  0.84173635  0.48200401  0.87174358    -0.07300
C1333       C  0.81799741  0.46232646  0.85254336    -0.18500
C1334       C  0.78828121  0.48060671  0.85132483     0.09900
S1335       S  0.86521211  0.54604251  0.91704537    -0.33500
S1336       S  0.75906573  0.45287745  0.82580645    -0.33500
H1337       H  0.77678647  0.41616432  0.81619255     0.27900
H1338       H  0.84619167  0.57764663  0.93275749     0.27900
H1339       H  0.80205721  0.56921171  0.90350651     0.18500
H1340       H  0.82298710  0.43264660  0.83816370     0.18500
C1341       C  0.53475136  0.46940343  0.88390818    -0.07300
C1342       C  0.54344265  0.49062356  0.85445256    -0.18500
C1343       C  0.57257009  0.50969727  0.85192391     0.09900
C1344       C  0.59311346  0.50867050  0.88016496    -0.07300
C1345       C  0.58444062  0.48673201  0.90952196    -0.18500
C1346       C  0.55554828  0.46682292  0.91157060     0.09900
S1347       S  0.58309425  0.53394801  0.81208810    -0.33500
S1348       S  0.54548595  0.44179853  0.95096323    -0.33500
H1349       H  0.53702234  0.40173483  0.93549465     0.27900
H1350       H  0.55711811  0.52006133  0.79310214     0.27900
H1351       H  0.52714715  0.49242080  0.83348324     0.18500
H1352       H  0.60000211  0.48580869  0.93121167     0.18500
C1353       C  0.89665612  0.99159369  0.87964819    -0.07300
C1354       C  0.91392530  0.99084230  0.84948516    -0.18500
C1355       C  0.94210122  0.01291239  0.84735647     0.09900
C1356       C  0.95329572  0.03664921  0.87584312    -0.07300
C1357       C  0.93588988  0.03833121  0.90570541    -0.18500
C1358       C  0.90804194  0.01552339  0.90813497     0.09900
S1359       S  0.96287439  0.00923241  0.80786265    -0.33500
S1360       S  0.88966428  0.01524763  0.94901856    -0.33500
H1361       H  0.88117795  0.97083725  0.94691698     0.27900
H1362       H  0.97986731  0.04807991  0.81246352     0.27900
H1363       H  0.90532835  0.97312768  0.82724799     0.18500
H1364       H  0.94511157  0.05515508  0.92806992     0.18500
C1365       C  0.70670894  0.97662852  0.87630537    -0.07300
C1366       C  0.68429293  0.96231213  0.89936596    -0.18500
C1367       C  0.65516104  0.98201928  0.90146441     0.09900
C1368       C  0.64781280  0.01701801  0.88005315    -0.07300
C1369       C  0.66972163  0.03093612  0.85663123    -0.18500
C1370       C  0.69860674  0.01064540  0.85389156     0.09900
S1371       S  0.62905944  0.96252230  0.93319002    -0.33500
S1372       S  0.72329820  0.02917956  0.82053111    -0.33500
H1373       H  0.73158194  0.98662270  0.80981287     0.27900
H1374       H  0.61625460  0.00372945  0.94099692     0.27900
H1375       H  0.68976864  0.93656670  0.91696909     0.18500
H1376       H  0.66386386  0.05703372  0.83945680     0.18500
C1377       C  0.76245044  0.78766467  0.84520105    -0.07300
C1378       C  0.72985031  0.78827048  0.84374330    -0.18500
C1379       C  0.71222607  0.74975344  0.84471757     0.09900
C1380       C  0.72720647  0.70889100  0.84788197    -0.07300
C1381       C  0.75971358  0.70798434  0.84538753    -0.18500
C1382       C  0.77731565  0.74648722  0.84355315     0.09900
S1383       S  0.67090948  0.75570291  0.84590791    -0.33500
S1384       S  0.81864606  0.74072912  0.84278605    -0.33500
H1385       H  0.82227143  0.77096264  0.81662844     0.27900
H1386       H  0.66582198  0.72413721  0.81998697     0.27900
H1387       H  0.71780457  0.81939030  0.84413061     0.18500
H1388       H  0.77177192  0.67695548  0.84674981     0.18500
C1389       C  0.78559533  0.46849330  0.61300164    -0.07300
C1390       C  0.78928274  0.50867981  0.63054397    -0.18500
C1391       C  0.81790603  0.52924217  0.63320234     0.09900
C1392       C  0.84383313  0.50991324  0.61748077    -0.07300
C1393       C  0.84067033  0.46912678  0.60097059    -0.18500
C1394       C  0.81196020  0.44808264  0.59846144     0.09900
S1395       S  0.81981191  0.57939295  0.65798309    -0.33500
S1396       S  0.80995282  0.39556234  0.57656291    -0.33500
H1397       H  0.84157282  0.39110263  0.56945479     0.27900
H1398       H  0.84796178  0.56894521  0.67397625     0.27900
H1399       H  0.76959684  0.52478951  0.64210990     0.18500
H1400       H  0.86075159  0.45422768  0.58932425     0.18500
C1401       C  0.54117344  0.53788632  0.61994308    -0.07300
C1402       C  0.55946227  0.54445588  0.59121672    -0.18500
C1403       C  0.58692386  0.52095134  0.58624700     0.09900
C1404       C  0.59706665  0.49149215  0.61126366    -0.07300
C1405       C  0.57918678  0.48641955  0.64056717    -0.18500
C1406       C  0.55147481  0.50895943  0.64503242     0.09900
S1407       S  0.60618064  0.52697568  0.54622395    -0.33500
S1408       S  0.52995463  0.49886437  0.68304803    -0.33500
H1409       H  0.51468841  0.53941161  0.68340907     0.27900
H1410       H  0.61320182  0.48220361  0.54217193     0.27900
H1411       H  0.55099126  0.56522392  0.57114333     0.18500
H1412       H  0.58684717  0.46468612  0.66039002     0.18500
C1413       C  0.67722006  0.47022875  0.71380678    -0.07300
C1414       C  0.69622953  0.50734397  0.71961913    -0.18500
C1415       C  0.69354654  0.53445443  0.74883771     0.09900
C1416       C  0.67118418  0.52509024  0.77343764    -0.07300
C1417       C  0.65249719  0.48764807  0.76781891    -0.18500
C1418       C  0.65532409  0.46037892  0.73876143     0.09900
S1419       S  0.72072928  0.57849994  0.75447278    -0.33500
S1420       S  0.62948102  0.41462860  0.73430819    -0.33500
H1421       H  0.65324618  0.38449394  0.72723020     0.27900
H1422       H  0.69828493  0.60950987  0.76400914     0.27900
H1423       H  0.71316826  0.51582541  0.70076228     0.18500
H1424       H  0.63598769  0.47863999  0.78695238     0.18500
C1425       C  0.95576633  0.96279938  0.61537678    -0.07300
C1426       C  0.93353755  0.94751061  0.59203940    -0.18500
C1427       C  0.90404949  0.96596247  0.59082039     0.09900
C1428       C  0.89668839  0.00141744  0.61309531    -0.07300
C1429       C  0.91894384  0.01551547  0.63717231    -0.18500
C1430       C  0.94804942  0.99629886  0.63883619     0.09900
S1431       S  0.87784322  0.94362035  0.55929852    -0.33500
S1432       S  0.97417615  0.01548078  0.67178757    -0.33500
H1433       H  0.98735115  0.97409730  0.67726291     0.27900
H1434       H  0.85663142  0.92977102  0.58369834     0.27900
H1435       H  0.93955383  0.92204068  0.57371415     0.18500
H1436       H  0.91366896  0.04156262  0.65526856     0.18500
C1437       C  0.70786266  0.02298035  0.61353256    -0.07300
C1438       C  0.70350333  0.98714972  0.63493283    -0.18500
C1439       C  0.67496200  0.96641259  0.63722447     0.09900
C1440       C  0.64984589  0.98145547  0.61770745    -0.07300
C1441       C  0.65374495  0.01733311  0.59667138    -0.18500
C1442       C  0.68227196  0.03816934  0.59415859     0.09900
S1443       S  0.67196411  0.92158907  0.66607390    -0.33500
S1444       S  0.68396793  0.08254006  0.56472897    -0.33500
H1445       H  0.69778019  0.11178167  0.58816524     0.27900
H1446       H  0.64270315  0.93373102  0.67818499     0.27900
H1447       H  0.72257168  0.97456560  0.64984908     0.18500
H1448       H  0.63437756  0.02890963  0.58166459     0.18500
C1449       C  0.81344955  0.02660385  0.71631126    -0.07300
C1450       C  0.79422815  0.98961556  0.72025570    -0.18500
C1451       C  0.79509505  0.96402589  0.74959877     0.09900
C1452       C  0.81627373  0.97445943  0.77589147    -0.07300
C1453       C  0.83533669  0.01154183  0.77208323    -0.18500
C1454       C  0.83402126  0.03760388  0.74302698     0.09900
S1455       S  0.76820069  0.91926630  0.75201320    -0.33500
S1456       S  0.86050427  0.08263350  0.74060393    -0.33500
H1457       H  0.83756652  0.11273722  0.73111010     0.27900
H1458       H  0.76294357  0.92323340  0.78709762     0.27900
H1459       H  0.77842132  0.98018275  0.69990402     0.18500
H1460       H  0.85132750  0.02069570  0.79233474     0.18500
C1461       C  0.76358259  0.20675646  0.64285044    -0.07300
C1462       C  0.77908229  0.24689731  0.64498890    -0.18500
C1463       C  0.76265173  0.28662633  0.64565912     0.09900
C1464       C  0.72993948  0.28671647  0.64206476    -0.07300
C1465       C  0.71445208  0.24672586  0.64472520    -0.18500
C1466       C  0.73091310  0.20705917  0.64617171     0.09900
S1467       S  0.78486972  0.33627006  0.65008135    -0.33500
S1468       S  0.70884564  0.15770634  0.65137618    -0.33500
H1469       H  0.73321524  0.13332918  0.66549893     0.27900
H1470       H  0.76087961  0.36146168  0.66438733     0.27900
H1471       H  0.80406961  0.24754078  0.64403083     0.18500
H1472       H  0.68945387  0.24599573  0.64362228     0.18500
C1473       C  0.96310214  0.49364288  0.51752538    -0.07300
C1474       C  0.96571268  0.52004506  0.48907416    -0.18500
C1475       C  0.98974039  0.51426019  0.46632094     0.09900
C1476       C  0.51446767  0.47443012  0.47326092    -0.07300
C1477       C  0.51210234  0.44827693  0.50217035    -0.18500
C1478       C  0.49045076  0.45780802  0.52724648     0.09900
S1479       S  0.99381701  0.55464008  0.43360382    -0.33500
S1480       S  0.49016829  0.42705187  0.56597158    -0.33500
H1481       H  0.51350853  0.39716399  0.55683564     0.27900
H1482       H  0.96357735  0.57145235  0.43520866     0.27900
H1483       H  0.95188671  0.54952909  0.48769483     0.18500
H1484       H  0.52757216  0.42076744  0.50536102     0.18500
C1485       C  0.60516396  0.34035125  0.45916034    -0.07300
C1486       C  0.58829512  0.34301933  0.48972165    -0.18500
C1487       C  0.60266963  0.34296877  0.52216168     0.09900
C1488       C  0.63532195  0.34072731  0.52532844    -0.07300
C1489       C  0.65204193  0.33537627  0.49475621    -0.18500
C1490       C  0.63760035  0.33515273  0.46218946     0.09900
S1491       S  0.57769816  0.34649287  0.55840150    -0.33500
S1492       S  0.66107358  0.32813661  0.42476719    -0.33500
H1493       H  0.68962289  0.32339544  0.44161188     0.27900
H1494       H  0.59433020  0.31526339  0.57698768     0.27900
H1495       H  0.56342968  0.34663132  0.48848926     0.18500
H1496       H  0.67693985  0.33313687  0.49621262     0.18500
C1497       C  0.51382863  0.27916339  0.34556004    -0.07300
C1498       C  0.48129427  0.28038963  0.34241313    -0.18500
C1499       C  0.96321479  0.24773261  0.34496334     0.09900
C1500       C  0.97804650  0.20684410  0.34852121    -0.07300
C1501       C  0.01062130  0.20592665  0.34695493    -0.18500
C1502       C  0.52813515  0.23766819  0.34698049     0.09900
S1503       S  0.92188691  0.25369763  0.34498674    -0.33500
S1504       S  0.56932174  0.23089922  0.35050740    -0.33500
H1505       H  0.57554737  0.25830277  0.32312340     0.27900
H1506       H  0.91733447  0.22147730  0.31943196     0.27900
H1507       H  0.46969565  0.31175833  0.34062909     0.18500
H1508       H  0.02260208  0.17494311  0.34861586     0.18500
C1509       C  0.98028868  0.02142060  0.47734215    -0.07300
C1510       C  0.50417615  0.99289602  0.46977399    -0.18500
C1511       C  0.52970012  0.98717859  0.49075496     0.09900
C1512       C  0.52983224  0.00662418  0.52325489    -0.07300
C1513       C  0.00978479  0.03530268  0.52883213    -0.18500
C1514       C  0.98411224  0.04429482  0.50859239     0.09900
S1515       S  0.56007539  0.95095357  0.47662941    -0.33500
S1516       S  0.95581777  0.08185940  0.52555090    -0.33500
H1517       H  0.93057973  0.05818206  0.51220170     0.27900
H1518       H  0.58108052  0.96218142  0.50284381     0.27900
H1519       H  0.50413356  0.97694605  0.44495159     0.18500
H1520       H  0.01100539  0.04952358  0.55426692     0.18500
C1521       C  0.85872343  0.14150014  0.52904872    -0.07300
C1522       C  0.86393818  0.18197521  0.51335960    -0.18500
C1523       C  0.87811469  0.18440844  0.48093107     0.09900
C1524       C  0.88598076  0.14548612  0.46270341    -0.07300
C1525       C  0.88023411  0.10548663  0.47822777    -0.18500
C1526       C  0.86756651  0.10308009  0.51093856     0.09900
S1527       S  0.88515230  0.23794411  0.46426594    -0.33500
S1528       S  0.86279885  0.05004010  0.52917954    -0.33500
H1529       H  0.87260022  0.02471268  0.50108257     0.27900
H1530       H  0.88945666  0.22487308  0.43024226     0.27900
H1531       H  0.85702891  0.21186440  0.52642332     0.18500
H1532       H  0.88662764  0.07561621  0.46480132     0.18500
C1533       C  0.60704017  0.64853532  0.02907408    -0.07300
C1534       C  0.59020400  0.65346960  0.99839365    -0.18500
C1535       C  0.60466472  0.65547957  0.96632941     0.09900
C1536       C  0.63721083  0.65170052  0.96371374    -0.07300
C1537       C  0.65414293  0.65020493  0.99457773    -0.18500
C1538       C  0.63973173  0.64892654  0.02676440     0.09900
S1539       S  0.58008670  0.66291748  0.92974522    -0.33500
S1540       S  0.66379752  0.64712884  0.06444693    -0.33500
H1541       H  0.69202727  0.65586048  0.04857869     0.27900
H1542       H  0.60085754  0.69049970  0.91318608     0.27900
H1543       H  0.56522893  0.65456005  0.99912392     0.18500
H1544       H  0.67904028  0.64783418  0.99352288     0.18500
C1545       C  0.50975576  0.51697175  0.01394198    -0.07300
C1546       C  0.98812760  0.49178252  0.02177632    -0.18500
C1547       C  0.96145118  0.48463447  0.00287248     0.09900
C1548       C  0.95804048  0.50526217  0.97162477    -0.07300
C1549       C  0.47816021  0.53655515  0.96551798    -0.18500
C1550       C  0.50570479  0.54069473  0.98382813     0.09900
S1551       S  0.93484280  0.44340790  0.01660327    -0.33500
S1552       S  0.53593628  0.57268605  0.96540594    -0.33500
H1553       H  0.56040070  0.54748254  0.97840276     0.27900
H1554       H  0.91112483  0.45419742  0.99354339     0.27900
H1555       H  0.99084019  0.47453145  0.04540345     0.18500
H1556       H  0.47653557  0.55159937  0.94082916     0.18500
C1557       C  0.56949381  0.51655156  0.21216902    -0.07300
C1558       C  0.58777541  0.47848371  0.21612602    -0.18500
C1559       C  0.58571536  0.45178922  0.24481089     0.09900
C1560       C  0.56549196  0.46343002  0.27137021    -0.07300
C1561       C  0.54712709  0.50145911  0.26728682    -0.18500
C1562       C  0.54843624  0.52734771  0.23809731     0.09900
S1563       S  0.61026090  0.40435539  0.24643288    -0.33500
S1564       S  0.52191938  0.57268724  0.23522268    -0.33500
H1565       H  0.51670620  0.56910720  0.20001521     0.27900
H1566       H  0.58638158  0.37614248  0.25588107     0.27900
H1567       H  0.60345559  0.46869683  0.19605387     0.18500
H1568       H  0.53140282  0.51128584  0.28730304     0.18500
C1569       C  0.91998570  0.96889747  0.21457651    -0.07300
C1570       C  0.90608402  0.01075396  0.21859938    -0.18500
C1571       C  0.90889546  0.03610956  0.24864910     0.09900
C1572       C  0.92536802  0.01956994  0.27660922    -0.07300
C1573       C  0.93874291  0.97731018  0.27288646    -0.18500
C1574       C  0.93604372  0.95200099  0.24268795     0.09900
S1575       S  0.89001082  0.08855332  0.25000255    -0.33500
S1576       S  0.46548936  0.90410480  0.23986467    -0.33500
H1577       H  0.44051713  0.87777595  0.22916303     0.27900
H1578       H  0.91718416  0.11119349  0.25913843     0.27900
H1579       H  0.89329353  0.02466164  0.19761184     0.18500
H1580       H  0.95125853  0.96333884  0.29403717     0.18500
C1581       C  0.98441907  0.78999399  0.12979026    -0.07300
C1582       C  0.97048179  0.75431994  0.14576903    -0.18500
C1583       C  0.98580073  0.71372071  0.14871783     0.09900
C1584       C  0.51836459  0.70771498  0.13725386    -0.07300
C1585       C  0.53152693  0.74242792  0.12007898    -0.18500
C1586       C  0.01541791  0.78418890  0.11801255     0.09900
S1587       S  0.46907895  0.67082216  0.17319270    -0.33500
S1588       S  0.03483369  0.82301673  0.09136803    -0.33500
H1589       H  0.05779421  0.79493208  0.07833602     0.27900
H1590       H  0.49582884  0.64705092  0.18150186     0.27900
H1591       H  0.94687095  0.75718669  0.15437452     0.18500
H1592       H  0.55344243  0.73729077  0.10746369     0.18500
C1593       C  0.52246952  0.00720870  0.97501059    -0.07300
C1594       C  0.50204640  0.97405156  0.96457563    -0.18500
C1595       C  0.47617916  0.96445845  0.98390875     0.09900
C1596       C  0.97139172  0.98833246  0.01460004    -0.07300
C1597       C  0.99057931  0.02341157  0.02456916    -0.18500
C1598       C  0.01541991  0.03541062  0.00483091     0.09900
S1599       S  0.44766885  0.92655660  0.96706624    -0.33500
S1600       S  0.03829331  0.08278647  0.01648497    -0.33500
H1601       H  0.01813488  0.09927466  0.04145055     0.27900
H1602       H  0.46318406  0.91509061  0.93695646     0.27900
H1603       H  0.50434930  0.95952407  0.93940606     0.18500
H1604       H  0.98653326  0.04111458  0.04815103     0.18500
C1605       C  0.85479755  0.84248373  0.95859907    -0.07300
C1606       C  0.83823784  0.84361122  0.98936168    -0.18500
C1607       C  0.85302231  0.84369826  0.02162941     0.09900
C1608       C  0.88577844  0.84287502  0.02406812    -0.07300
C1609       C  0.90214023  0.83802545  0.99325225    -0.18500
C1610       C  0.88726447  0.83751975  0.96108201     0.09900
S1611       S  0.82929976  0.84617132  0.05916350    -0.33500
S1612       S  0.91118539  0.83045428  0.92419377    -0.33500
H1613       H  0.88942838  0.80513001  0.90579624     0.27900
H1614       H  0.80045131  0.84241168  0.04267853     0.27900
H1615       H  0.81337439  0.84679564  0.98822399     0.18500
H1616       H  0.92709276  0.83593840  0.99400333     0.18500
C1617       C  0.88946218  0.34069146  0.96103954    -0.07300
C1618       C  0.90486899  0.33579002  0.99269535    -0.18500
C1619       C  0.88896160  0.33493816  0.02396653     0.09900
C1620       C  0.85638999  0.33770896  0.02414541    -0.07300
C1621       C  0.84100557  0.33789403  0.99217754    -0.18500
C1622       C  0.85688087  0.34041008  0.96109845     0.09900
S1623       S  0.91081474  0.33393229  0.06323989    -0.33500
S1624       S  0.83496567  0.34765156  0.92233569    -0.33500
H1625       H  0.80614162  0.35552542  0.93746889     0.27900
H1626       H  0.94039326  0.33392326  0.04880813     0.27900
H1627       H  0.92985086  0.33552795  0.99314297     0.18500
H1628       H  0.81604041  0.33899207  0.99153780     0.18500
C1629       C  0.73119482  0.51254694  0.97152967    -0.07300
C1630       C  0.73630917  0.53840253  0.00092828    -0.18500
C1631       C  0.75947115  0.52777237  0.02414598     0.09900
C1632       C  0.77785289  0.49065964  0.01771476    -0.07300
C1633       C  0.77493158  0.46738195  0.98707586    -0.18500
C1634       C  0.75133354  0.47682613  0.96438420     0.09900
S1635       S  0.76356270  0.55933014  0.06321728    -0.33500
S1636       S  0.74818649  0.44043235  0.92791422    -0.33500
H1637       H  0.71725035  0.42974306  0.93450016     0.27900
H1638       H  0.73895651  0.58844574  0.05750879     0.27900
H1639       H  0.72189621  0.56673810  0.00591988     0.18500
H1640       H  0.78886821  0.43828288  0.98273255     0.18500
C1641       C  0.90102434  0.47814165  0.11229005    -0.07300
C1642       C  0.92370087  0.46757735  0.13635156    -0.18500
C1643       C  0.95259489  0.48796049  0.13660328     0.09900
C1644       C  0.95976734  0.51835013  0.11105234    -0.07300
C1645       C  0.93651935  0.52959398  0.08750793    -0.18500
C1646       C  0.90741433  0.50984291  0.08784690     0.09900
S1647       S  0.97849084  0.47468873  0.17104612    -0.33500
S1648       S  0.88003397  0.52441863  0.05519308    -0.33500
H1649       H  0.86849200  0.48175499  0.05026187     0.27900
H1650       H  0.98825529  0.51813885  0.17656447     0.27900
H1651       H  0.91850250  0.44410948  0.15577998     0.18500
H1652       H  0.94136909  0.55254146  0.06762908     0.18500
C1653       C  0.70633077  0.45281958  0.11420171    -0.07300
C1654       C  0.70032096  0.48746567  0.13683592    -0.18500
C1655       C  0.67197356  0.50903908  0.13695255     0.09900
C1656       C  0.64888593  0.49737907  0.11244606    -0.07300
C1657       C  0.65455282  0.46139643  0.09054383    -0.18500
C1658       C  0.68270712  0.43863669  0.09155359     0.09900
S1659       S  0.66749391  0.55066639  0.16962877    -0.33500
S1660       S  0.68793865  0.39419518  0.06150975    -0.33500
H1661       H  0.69633235  0.36419356  0.08664589     0.27900
H1662       H  0.63987630  0.53278649  0.18169691     0.27900
H1663       H  0.71821955  0.49831338  0.15448415     0.18500
H1664       H  0.63712321  0.45114261  0.07217157     0.18500
C1665       C  0.83938025  0.98374559  0.11399658    -0.07300
C1666       C  0.83190154  0.01561194  0.09003798    -0.18500
C1667       C  0.80443148  0.03952472  0.09212212     0.09900
C1668       C  0.78397943  0.03167107  0.11901490    -0.07300
C1669       C  0.79166956  0.00087338  0.14346773    -0.18500
C1670       C  0.81900135  0.97690837  0.14138741     0.09900
S1671       S  0.79493765  0.07745742  0.05890153    -0.33500
S1672       S  0.82640116  0.93911405  0.17503526    -0.33500
H1673       H  0.82476121  0.90240506  0.15294964     0.27900
H1674       H  0.82099476  0.06964216  0.03860718     0.27900
H1675       H  0.84746512  0.02136106  0.06925719     0.18500
H1676       H  0.77567851  0.99442510  0.16379420     0.18500
C1677       C  0.52900361  0.98316402  0.11574427    -0.07300
C1678       C  0.53272049  0.02815275  0.11163460    -0.18500
C1679       C  0.56197568  0.04717955  0.11207392     0.09900
C1680       C  0.58847189  0.02051859  0.11726951    -0.07300
C1681       C  0.58434347  0.97552764  0.12242973    -0.18500
C1682       C  0.55496378  0.95689178  0.12234814     0.09900
S1683       S  0.56326534  0.10537813  0.10540062    -0.33500
S1684       S  0.55195525  0.90024384  0.13334285    -0.33500
H1685       H  0.52246711  0.90359264  0.14782604     0.27900
H1686       H  0.58502152  0.10197698  0.07916191     0.27900
H1687       H  0.51267176  0.04849954  0.10691845     0.18500
H1688       H  0.60404539  0.95475367  0.12766746     0.18500
C1689       C  0.72720206  0.21030562  0.14701539    -0.07300
C1690       C  0.75935299  0.20413912  0.14967066    -0.18500
C1691       C  0.77995556  0.23957784  0.14892882     0.09900
C1692       C  0.76830988  0.28230035  0.14494688    -0.07300
C1693       C  0.73611659  0.28870412  0.14554401    -0.18500
C1694       C  0.71553749  0.25336857  0.14667381     0.09900
S1695       S  0.82066776  0.22765731  0.14823346    -0.33500
S1696       S  0.67489379  0.26495707  0.14249186    -0.33500
H1697       H  0.66501004  0.22848721  0.16059729     0.27900
H1698       H  0.82964858  0.26648822  0.16519700     0.27900
H1699       H  0.76860033  0.17115015  0.14940085     0.18500
H1700       H  0.72686153  0.32132446  0.14213872     0.18500
C1701       C  0.60573616  0.15056195  0.96524339    -0.07300
C1702       C  0.61506913  0.10991897  0.97730712    -0.18500
C1703       C  0.62827768  0.10515782  0.00942457     0.09900
C1704       C  0.63458354  0.14222463  0.03062556    -0.07300
C1705       C  0.62556245  0.18360001  0.01864517    -0.18500
C1706       C  0.61064854  0.18798812  0.98649132     0.09900
S1707       S  0.63490208  0.04965303  0.02205693    -0.33500
S1708       S  0.59835886  0.24173017  0.97414929    -0.33500
H1709       H  0.59481331  0.23199101  0.93930813     0.27900
H1710       H  0.63248876  0.05856849  0.05678887     0.27900
H1711       H  0.61005250  0.08067554  0.96219708     0.18500
H1712       H  0.63055990  0.21255533  0.03399549     0.18500
C1713       C  0.76173166  0.97832372  0.97623660    -0.07300
C1714       C  0.75745600  0.95092060  0.00408038    -0.18500
C1715       C  0.73355143  0.95844963  0.02691618     0.09900
C1716       C  0.71353915  0.99408738  0.02202041    -0.07300
C1717       C  0.71563274  0.01840220  0.99249454    -0.18500
C1718       C  0.74023388  0.01263175  0.97056723     0.09900
S1719       S  0.73145493  0.92433130  0.06359002    -0.33500
S1720       S  0.74310910  0.05223670  0.93737547    -0.33500
H1721       H  0.77388913  0.06301170  0.94567563     0.27900
H1722       H  0.69919001  0.92748174  0.06645028     0.27900
H1723       H  0.77284490  0.92348750  0.00818142     0.18500
H1724       H  0.70063807  0.04651633  0.98923474     0.18500
C1725       C  0.85588845  0.64647515  0.46138635    -0.07300
C1726       C  0.86937161  0.60699162  0.47101489    -0.18500
C1727       C  0.88273322  0.60182004  0.50304251     0.09900
C1728       C  0.88643798  0.63802320  0.52572115    -0.07300
C1729       C  0.87314698  0.67819316  0.51631300    -0.18500
C1730       C  0.85697105  0.68229184  0.48491011     0.09900
S1731       S  0.89068301  0.54640042  0.51490074    -0.33500
S1732       S  0.83740894  0.73318712  0.47693725    -0.33500
H1733       H  0.83248812  0.72620385  0.44193180     0.27900
H1734       H  0.88451695  0.55318471  0.54948644     0.27900
H1735       H  0.86666157  0.57828994  0.45458370     0.18500
H1736       H  0.87518185  0.70624937  0.53340087     0.18500
C1737       C  0.77556641  0.49512140  0.46733824    -0.07300
C1738       C  0.75162517  0.46692680  0.45699276    -0.18500
C1739       C  0.72773163  0.45715224  0.47911669     0.09900
C1740       C  0.72899673  0.47412273  0.51254521    -0.07300
C1741       C  0.75434456  0.49961802  0.52338522    -0.18500
C1742       C  0.77749512  0.51054189  0.50097676     0.09900
S1743       S  0.69437667  0.42734346  0.46357199    -0.33500
S1744       S  0.80780398  0.54772346  0.51428577    -0.33500
H1745       H  0.80004503  0.55013234  0.54889206     0.27900
H1746       H  0.70306644  0.42476703  0.42925331     0.27900
H1747       H  0.74974431  0.45701892  0.43048452     0.18500
H1748       H  0.75593565  0.51140033  0.54943581     0.18500
C1749       C  0.89796099  0.51551616  0.37126029    -0.07300
C1750       C  0.90093633  0.47208639  0.38190943    -0.18500
C1751       C  0.92971833  0.45084216  0.38253274     0.09900
C1752       C  0.95636768  0.47362576  0.37229041    -0.07300
C1753       C  0.95306058  0.51634774  0.36021550    -0.18500
C1754       C  0.92440219  0.53753185  0.35954731     0.09900
S1755       S  0.93165821  0.39445203  0.39549361    -0.33500
S1756       S  0.92227652  0.59220000  0.34280205    -0.33500
H1757       H  0.95291591  0.59485376  0.33151825     0.27900
H1758       H  0.89988483  0.38850145  0.40076365     0.27900
H1759       H  0.88060070  0.45491265  0.39019241     0.18500
H1760       H  0.97331566  0.53394041  0.35224008     0.18500
C1761       C  0.64673632  0.48707188  0.37509429    -0.07300
C1762       C  0.65363939  0.51708925  0.40157097    -0.18500
C1763       C  0.68132035  0.54073997  0.40211657     0.09900
C1764       C  0.70285717  0.53420268  0.37577876    -0.07300
C1765       C  0.69585982  0.50486746  0.34918833    -0.18500
C1766       C  0.66810090  0.48191084  0.34817936     0.09900
S1767       S  0.68924434  0.57524635  0.43869495    -0.33500
S1768       S  0.66153623  0.44757889  0.31120782    -0.33500
H1769       H  0.63213698  0.46546125  0.30504894     0.27900
H1770       H  0.69586885  0.61215892  0.41931236     0.27900
H1771       H  0.63768475  0.52154501  0.42239170     0.18500
H1772       H  0.71249097  0.49935050  0.32912164     0.18500
C1773       C  0.81450477  0.52486366  0.27241598    -0.07300
C1774       C  0.78739286  0.50584175  0.25880760    -0.18500
C1775       C  0.78800288  0.47555484  0.23164834     0.09900
C1776       C  0.81631824  0.46385931  0.21631362    -0.07300
C1777       C  0.84361826  0.48234895  0.22983630    -0.18500
C1778       C  0.84302585  0.51241959  0.25757769     0.09900
S1779       S  0.75155096  0.45258793  0.21766687    -0.33500
S1780       S  0.87947363  0.53202927  0.27383306    -0.33500
H1781       H  0.87049292  0.57624148  0.27360082     0.27900
H1782       H  0.76390848  0.41355685  0.20394548     0.27900
H1783       H  0.76534713  0.51349033  0.27032726     0.18500
H1784       H  0.86543648  0.47487872  0.21776928     0.18500
C1785       C  0.78670350  0.96192149  0.38049568    -0.07300
C1786       C  0.79412463  0.98949070  0.35393620    -0.18500
C1787       C  0.82319264  0.00857555  0.35192133     0.09900
C1788       C  0.84501065  0.00273052  0.37858991    -0.07300
C1789       C  0.83775092  0.97421077  0.40490585    -0.18500
C1790       C  0.80907672  0.95322237  0.40580057     0.09900
S1791       S  0.83088819  0.03843191  0.31387879    -0.33500
S1792       S  0.80129163  0.91911820  0.44145588    -0.33500
H1793       H  0.79365980  0.88245069  0.42095826     0.27900
H1794       H  0.85996034  0.01885915  0.30898811     0.27900
H1795       H  0.77703972  0.99620665  0.33448978     0.18500
H1796       H  0.85422338  0.96886137  0.42528940     0.18500
C1797       C  0.59214730  0.98245771  0.37427788    -0.07300
C1798       C  0.58899547  0.02501924  0.38770868    -0.18500
C1799       C  0.55999088  0.04477044  0.39066308     0.09900
C1800       C  0.53324351  0.02121429  0.38037313    -0.07300
C1801       C  0.53671368  0.97896130  0.36625411    -0.18500
C1802       C  0.56563013  0.95970973  0.36263039     0.09900
S1803       S  0.55915487  0.10004267  0.40719823    -0.33500
S1804       S  0.56688006  0.90664571  0.34185171    -0.33500
H1805       H  0.59276664  0.91646003  0.32208254     0.27900
H1806       H  0.53652603  0.11326354  0.38395273     0.27900
H1807       H  0.60927120  0.04291537  0.39632476     0.18500
H1808       H  0.51665525  0.96029004  0.35806518     0.18500
C1809       C  0.67758931  0.96848521  0.27555198    -0.07300
C1810       C  0.64894852  0.98100315  0.26161008    -0.18500
C1811       C  0.64706426  0.01046438  0.23443477     0.09900
C1812       C  0.67430048  0.02897918  0.22111016    -0.07300
C1813       C  0.70277284  0.01593160  0.23496279    -0.18500
C1814       C  0.70474484  0.98561492  0.26109964     0.09900
S1815       S  0.60949743  0.02063984  0.21623866    -0.33500
S1816       S  0.74296710  0.96866549  0.27393496    -0.33500
H1817       H  0.73414109  0.92729630  0.28548137     0.27900
H1818       H  0.61463920  0.06531466  0.21093175     0.27900
H1819       H  0.62785806  0.96888917  0.27261139     0.18500
H1820       H  0.72395641  0.02746287  0.22374236     0.18500
C1821       C  0.72494950  0.78640254  0.34883863    -0.07300
C1822       C  0.75722693  0.79032965  0.34664110    -0.18500
C1823       C  0.77652153  0.75336713  0.34564249     0.09900
C1824       C  0.76341432  0.71125030  0.34706354    -0.07300
C1825       C  0.73102831  0.70736309  0.34659186    -0.18500
C1826       C  0.71173348  0.74428923  0.34745936     0.09900
S1827       S  0.81758891  0.76219475  0.34787087    -0.33500
S1828       S  0.67088588  0.73546177  0.35219631    -0.33500
H1829       H  0.66164823  0.77265136  0.33433879     0.27900
H1830       H  0.82528441  0.72488308  0.32834996     0.27900
H1831       H  0.76763500  0.82252521  0.34850279     0.18500
H1832       H  0.72070751  0.67524185  0.34860078     0.18500
C1833       C  0.63600920  0.84450763  0.46448896    -0.07300
C1834       C  0.65067647  0.84271798  0.49673783    -0.18500
C1835       C  0.63406652  0.84372718  0.52747260     0.09900
C1836       C  0.60144117  0.84561561  0.52662152    -0.07300
C1837       C  0.58674391  0.84328678  0.49436349    -0.18500
C1838       C  0.60339340  0.84271722  0.46371522     0.09900
S1839       S  0.65521697  0.84704928  0.56723300    -0.33500
S1840       S  0.58144889  0.84417728  0.42475095    -0.33500
H1841       H  0.59846385  0.81019790  0.40918717     0.27900
H1842       H  0.68512033  0.84589471  0.55363510     0.27900
H1843       H  0.67563451  0.84340590  0.49797415     0.18500
H1844       H  0.56176723  0.84428618  0.49284429     0.18500
C1845       C  0.70859041  0.00418124  0.47456340    -0.07300
C1846       C  0.71095343  0.98043925  0.50437813    -0.18500
C1847       C  0.73756442  0.98293683  0.52414925     0.09900
C1848       C  0.76013857  0.01503348  0.51694693    -0.07300
C1849       C  0.75484481  0.04362953  0.48994843    -0.18500
C1850       C  0.72905137  0.03872770  0.46886387     0.09900
S1851       S  0.74167208  0.94160327  0.55598754    -0.33500
S1852       S  0.72431218  0.07305137  0.43234450    -0.33500
H1853       H  0.75057800  0.09920652  0.43821651     0.27900
H1854       H  0.77196269  0.93052820  0.54636313     0.27900
H1855       H  0.69502509  0.95368603  0.50840540     0.18500
H1856       H  0.77105679  0.06968025  0.48518673     0.18500
loop_ 
_geom_bond_atom_site_label_1 
_geom_bond_atom_site_label_2 
_geom_bond_distance 
_geom_bond_site_symmetry_2 
_ccdc_geom_bond_type 
O1           C16   1.254       .  A
O1           Al9   1.855       .  S
C2           O12   1.255       .  A
C2            O3   1.284       .  A
C2          C905   1.520       .  S
O3           Al5   2.007       .  S
O4            C6   1.255       .  A
O4           Al5   1.880       .  S
Al5          O13   1.944       .  S
Al5          O15   2.001       .  S
Al5          O14   1.777       .  S
C6           O19   1.262       .  A
C6          C869   1.479       .  S
O7           C17   1.257       .  A
O7           Al9   1.894       .  S
O8           C21   1.263       .  A
O8          Al18   1.895       .  S
Al9          O22   1.923       .  S
Al9          O19   1.919       .  S
Al9          O14   1.783       .  S
O10          C17   1.253       .  A
O10         Al18   1.854       .  S
O11          C20   1.253       .  A
O11         Al18   1.884       .  S
O12         Al18   1.855       .  S
O13          C20   1.264       .  A
O14         Al18   1.783       .  S
O15          C16   1.280       .  A
C16         C881   1.498       .  S
C17         C917   1.441       .  S
C20         C893   1.483       .  S
C21          O22   1.266       .  A
C21         C857   1.467       .  S
O23          C38   1.253       .  A
O23         Al31   1.854       .  S
C24          O34   1.254       .  A
C24          O25   1.279       .  A
C24         C797   1.497       .  S
O25         Al27   1.992       .  S
O26          C28   1.259       .  A
O26         Al27   1.894       .  S
Al27         O35   1.940       .  S
Al27         O37   1.991       .  S
Al27         O36   1.779       .  S
C28          O41   1.264       .  A
C28         C821   1.488       .  S
O29          C39   1.256       .  A
O29         Al31   1.881       .  S
O30          C43   1.263       .  A
O30         Al40   1.901       .  S
Al31         O44   1.922       .  S
Al31         O41   1.927       .  S
Al31         O36   1.779       .  S
O32          C39   1.257       .  A
O32         Al40   1.866       .  S
O33          C42   1.257       .  A
O33         Al40   1.894       .  S
O34         Al40   1.864       .  S
O35          C42   1.266       .  A
O36         Al40   1.782       .  S
O37          C38   1.278       .  A
C38         C845   1.496       .  S
C39         C809   1.436       .  S
C42         C896   1.487       .  S
C43          O44   1.265       .  A
C43         C836   1.473       .  S
O45          C60   1.252       .  A
O45         Al53   1.846       .  S
C46          O56   1.257       .  A
C46          O47   1.285       .  A
C46         C776   1.512       .  S
O47         Al49   2.017       .  S
O48          C50   1.251       .  A
O48         Al49   1.862       .  S
Al49         O57   1.935       .  S
Al49         O59   1.995       .  S
Al49         O58   1.781       .  S
C50          O63   1.263       .  A
C50         C752   1.485       .  S
O51          C61   1.255       .  A
O51         Al53   1.890       .  S
O52          C65   1.266       .  A
O52         Al62   1.896       .  S
Al53         O66   1.927       .  S
Al53         O63   1.918       .  S
Al53         O58   1.785       .  S
O54          C61   1.254       .  A
O54         Al62   1.859       .  S
O55          C64   1.253       .  A
O55         Al62   1.892       .  S
O56         Al62   1.868       .  S
O57          C64   1.261       .  A
O58         Al62   1.785       .  S
O59          C60   1.279       .  A
C60         C884   1.496       .  S
C61         C788   1.446   1_545  S
C64         C761   1.486       .  S
C65          O66   1.268       .  A
C65         C740   1.470       .  S
O67          C82   1.255       .  A
O67         Al75   1.855       .  S
C68          O78   1.255       .  A
C68          O69   1.282       .  A
C68         C692   1.513       .  S
O69         Al71   1.993       .  S
O70          C72   1.256       .  A
O70         Al71   1.888       .  S
Al71         O79   1.940       .  S
Al71         O81   1.972       .  S
Al71         O80   1.782       .  S
C72          O85   1.255       .  A
C72         C713   1.470       .  S
O73          C83   1.254       .  A
O73         Al75   1.891       .  S
O74          C87   1.264       .  A
O74         Al84   1.895       .  S
Al75         O88   1.919       .  S
Al75         O85   1.893       .  S
Al75         O80   1.788       .  S
O76          C83   1.252       .  A
O76         Al84   1.850       .  S
O77          C86   1.250       .  A
O77         Al84   1.877       .  S
O78         Al84   1.853       .  S
O79          C86   1.261       .  A
O80         Al84   1.789       .  S
O81          C82   1.277       .  A
C82         C848   1.483       .  S
C83         C704   1.445       .  S
C86         C764   1.483       .  S
C87          O88   1.266       .  A
C87         C725   1.464       .  S
O89         C104   1.262       .  A
O89       Al1025   1.886       .  S
C90         O100   1.267       .  A
C90          O91   1.265       .  A
C90         C680   1.521       .  S
O91         Al93   1.927       .  S
O92          C94   1.246       .  A
O92         Al93   1.865       .  S
Al93        O101   1.863       .  S
Al93       O1031   1.931       .  S
Al93        O102   1.769       .  S
C94         O107   1.256       .  A
C94         C668   1.462       .  S
O95         C105   1.264       .  A
O95         Al97   1.885       .  S
O96         C109   1.282       .  A
O96        Al106   1.974       .  S
Al97        O110   1.880       .  S
Al97        O107   1.897       .  S
Al97       O1017   1.885       .  S
Al97        O102   1.781       .  S
O98         C105   1.270       .  A
O98        Al106   1.939       .  S
O99         C108   1.278       .  A
O99        Al106   2.002       .  S
O100       Al106   1.939       .  S
O101        C108   1.249       .  A
O102       Al106   1.770       .  S
O103        C104   1.270       .  A
O103      Al1021   1.937       .  S
C104        C749   1.466   1_655  S
C105        C737   1.483       .  S
C108        C653   1.515       .  S
C109        O110   1.259       .  A
C109        C641   1.501       .  S
O111        C126   1.263       .  A
O111      Al1047   1.893       .  S
C112        O122   1.269       .  A
C112        O113   1.269       .  A
C112        C605   1.529       .  S
O113       Al115   1.942       .  S
O114        C116   1.245       .  A
O114       Al115   1.858       .  S
Al115       O123   1.878       .  S
Al115      O1053   1.934   1_455  S
Al115       O124   1.775       .  S
C116        O129   1.256       .  A
C116        C617   1.461       .  S
O117        C127   1.266       .  A
O117       Al119   1.903       .  S
O118        C131   1.283       .  A
O118       Al128   1.971       .  S
Al119       O132   1.886       .  S
Al119       O129   1.898       .  S
Al119      O1039   1.888       .  S
Al119       O124   1.782       .  S
O120        C127   1.264       .  A
O120       Al128   1.913       .  S
O121        C130   1.271       .  A
O121       Al128   1.967       .  S
O122       Al128   1.940       .  S
O123        C130   1.251       .  A
O124       Al128   1.768       .  S
O125        C126   1.268       .  A
O125      Al1043   1.921       .  S
C126        C716   1.487       .  S
C127        C728   1.481       .  S
C130        C656   1.488       .  S
C131        O132   1.259       .  A
C131        C629   1.501       .  S
O133        C148   1.264   1_655  A
O133      Al1069   1.890       .  S
C134        O144   1.268       .  A
C134        O135   1.264       .  A
C134        C596   1.508       .  S
O135       Al137   1.935       .  S
O136        C138   1.248       .  A
O136       Al137   1.863       .  S
Al137       O145   1.870       .  S
Al137      O1075   1.935       .  S
Al137       O146   1.780       .  S
C138        O151   1.259       .  A
C138        C581   1.463       .  S
O139        C149   1.266       .  A
O139       Al141   1.903       .  S
O140        C153   1.279       .  A
O140       Al150   1.962       .  S
Al141       O154   1.890       .  S
Al141       O151   1.908       .  S
Al141      O1061   1.879       .  S
Al141       O146   1.781       .  S
O142        C149   1.266       .  A
O142       Al150   1.918       .  S
O143        C152   1.274       .  A
O143       Al150   1.978       .  S
O144       Al150   1.948       .  S
O145        C152   1.254       .  A
O146       Al150   1.766       .  S
O147        C148   1.267   1_655  A
O147      Al1065   1.932       .  S
C148        C872   1.486       .  S
C149        C860   1.480   1_545  S
C152        C572   1.505       .  S
C153        O154   1.259       .  A
C153        C644   1.501       .  S
O155        C170   1.265       .  A
O155      Al1091   1.897       .  S
C156        O166   1.270       .  A
C156        O157   1.264       .  A
C156        C557   1.514       .  S
O157       Al159   1.938       .  S
O158        C160   1.248       .  A
O158       Al159   1.860       .  S
Al159       O167   1.866       .  S
Al159      O1097   1.935   1_455  S
Al159       O168   1.781       .  S
C160        O173   1.256       .  A
C160        C548   1.472       .  S
O161        C171   1.268       .  A
O161       Al163   1.905       .  S
O162        C175   1.282       .  A
O162       Al172   1.974       .  S
Al163       O176   1.873       .  S
Al163       O173   1.906       .  S
Al163      O1083   1.893       .  S
Al163       O168   1.782       .  S
O164        C171   1.265       .  A
O164       Al172   1.917       .  S
O165        C174   1.274       .  A
O165       Al172   1.980       .  S
O166       Al172   1.952       .  S
O167        C174   1.253       .  A
O168       Al172   1.769       .  S
O169        C170   1.267       .  A
O169      Al1087   1.936       .  S
C170        C824   1.490       .  S
C171        C833   1.485       .  S
C174        C569   1.501       .  S
C175        O176   1.257       .  A
C175        C632   1.504       .  S
O177        C192   1.264       .  A
O177       Al185   1.886       .  S
C178        O188   1.270       .  A
C178        O179   1.263       .  A
C178        C593   1.515       .  S
O179       Al181   1.933       .  S
O180        C182   1.253       .  A
O180       Al181   1.867       .  S
Al181       O189   1.869       .  S
Al181       O191   1.917       .  S
Al181       O190   1.783       .  S
C182        O195   1.254       .  A
C182        C920   1.467       .  S
O183        C193   1.263       .  A
O183       Al185   1.897       .  S
O184        C197   1.280       .  A
O184       Al194   1.973       .  S
Al185       O198   1.878       .  S
Al185       O195   1.892       .  S
Al185       O190   1.778       .  S
O186        C193   1.266       .  A
O186       Al194   1.910       .  S
O187        C196   1.274       .  A
O187       Al194   1.975       .  S
O188       Al194   1.960       .  S
O189        C196   1.254       .  A
O190       Al194   1.768       .  S
O191        C192   1.263       .  A
C192        C509   1.480       .  S
C193        C500   1.488       .  S
C196        C533   1.496       .  S
C197        O198   1.256       .  A
C197        C521   1.497       .  S
O199        C214   1.266       .  A
O199       Al207   1.894       .  S
C200        O210   1.265       .  A
C200        O201   1.262       .  A
C200        C560   1.506       .  S
O201       Al203   1.931       .  S
O202        C204   1.247       .  A
O202       Al203   1.864       .  S
Al203       O211   1.860       .  S
Al203       O213   1.928       .  S
Al203       O212   1.785       .  S
C204        O217   1.257       .  A
C204        C812   1.459       .  S
O205        C215   1.263       .  A
O205       Al207   1.899       .  S
O206        C219   1.278       .  A
O206       Al216   1.961       .  S
Al207       O220   1.888       .  S
Al207       O217   1.892       .  S
Al207       O212   1.785       .  S
O208        C215   1.265       .  A
O208       Al216   1.908       .  S
O209        C218   1.273       .  A
O209       Al216   1.972       .  S
O210       Al216   1.939       .  S
O211        C218   1.252       .  A
O212       Al216   1.774       .  S
O213        C214   1.266       .  A
C214        C461   1.492       .  S
C215        C476   1.467       .  S
C218        C536   1.494       .  S
C219        O220   1.258       .  A
C219        C485   1.503       .  S
O221        C236   1.264       .  A
O221       Al229   1.895       .  S
C222        O232   1.269       .  A
C222        O223   1.265       .  A
C222        C677   1.515       .  S
O223       Al225   1.926       .  S
O224        C226   1.251       .  A
O224       Al225   1.874       .  S
Al225       O233   1.875       .  S
Al225       O235   1.925       .  S
Al225       O234   1.776       .  S
C226        O239   1.252       .  A
C226        C785   1.470       .  S
O227        C237   1.263       .  A
O227       Al229   1.895       .  S
O228        C241   1.281       .  A
O228       Al238   1.972       .  S
Al229       O242   1.893       .  S
Al229       O239   1.891       .  S
Al229       O234   1.779       .  S
O230        C237   1.268       .  A
O230       Al238   1.922       .  S
O231        C240   1.272       .  A
O231       Al238   1.972       .  S
O232       Al238   1.944       .  S
O233        C240   1.254       .  A
O234       Al238   1.767       .  S
O235        C236   1.268       .  A
C236        C437   1.490       .  S
C237        C425   1.477       .  S
C240        C449   1.500       .  S
C241        O242   1.258       .  A
C241        C524   1.493       .  S
O243        C258   1.266       .  A
O243       Al251   1.908       .  S
C244        O254   1.270       .  A
C244        O245   1.263       .  A
C244        C608   1.523       .  S
O245       Al247   1.923       .  S
O246        C248   1.254       .  A
O246       Al247   1.880       .  S
Al247       O255   1.874       .  S
Al247       O257   1.919       .  S
Al247       O256   1.779       .  S
C248        O261   1.251       .  A
C248        C701   1.466       .  S
O249        C259   1.265       .  A
O249       Al251   1.898       .  S
O250        C263   1.280       .  A
O250       Al260   1.977       .  S
Al251       O264   1.870       .  S
Al251       O261   1.874       .  S
Al251       O256   1.781       .  S
O252        C259   1.264       .  A
O252       Al260   1.908       .  S
O253        C262   1.272       .  A
O253       Al260   1.968       .  S
O254       Al260   1.961       .  S
O255        C262   1.256       .  A
O256       Al260   1.772       .  S
O257        C258   1.266       .  A
C258        C401   1.477       .  S
C259        C416   1.475       .  S
C262        C452   1.504       .  S
C263        O264   1.254       .  A
C263        C488   1.499       .  S
O265        C280   1.252       .  A
O265       Al273   1.848       .  S
C266        O276   1.256       .  A
C266        O267   1.285       .  A
C266        C908   1.513       .  S
O267       Al269   2.004       .  S
O268        C270   1.257       .  A
O268       Al269   1.887       .  S
Al269       O277   1.942       .  S
Al269       O279   1.995       .  S
Al269       O278   1.778       .  S
C270        O283   1.256       .  A
C270        C512   1.461       .  S
O271        C281   1.253       .  A
O271       Al273   1.882       .  S
O272        C285   1.265       .  A
O272      Al1210   1.902       .  S
Al273       O283   1.886       .  S
Al273      O1214   1.907       .  S
Al273       O278   1.780       .  S
O274        C281   1.256       .  A
O274       Al282   1.867       .  S
O275        C284   1.255       .  A
O275       Al282   1.887       .  S
O276       Al282   1.862       .  S
O277        C284   1.264       .  A
O278       Al282   1.782       .  S
O279        C280   1.280       .  A
C280        C380   1.498       .  S
C281        C584   1.436   1_565  S
Al282      O1200   1.893   1_455  S
C284        C392   1.490       .  S
C285        O286   1.265       .  A
C285        C497   1.480       .  S
O286      Al1201   1.917       .  S
O287        C302   1.253       .  A
O287       Al295   1.858       .  S
C288        O298   1.257       .  A
C288        O289   1.282       .  A
C288        C800   1.508       .  S
O289       Al291   2.004       .  S
O290        C292   1.256       .  A
O290       Al291   1.880       .  S
Al291       O299   1.936       .  S
Al291       O301   1.981       .  S
Al291       O300   1.784       .  S
C292        O305   1.261       .  A
C292        C464   1.472       .  S
O293        C303   1.256       .  A
O293       Al295   1.890       .  S
O294        C307   1.266   1_655  A
O294      Al1232   1.908       .  S
Al295       O305   1.915       .  S
Al295      O1236   1.914       .  S
Al295       O300   1.787       .  S
O296        C303   1.252       .  A
O296       Al304   1.851       .  S
O297        C306   1.253       .  A
O297       Al304   1.888       .  S
O298       Al304   1.875       .  S
O299        C306   1.262       .  A
O300       Al304   1.789       .  S
O301        C302   1.276       .  A
C302        C365   1.485       .  S
C303        C545   1.440       .  S
Al304      O1222   1.901       .  S
C306        C389   1.482       .  S
C307        O308   1.265   1_455  A
C307        C473   1.482       .  S
O308      Al1223   1.896       .  S
O309        C324   1.255       .  A
O309       Al317   1.857       .  S
C310        O320   1.256       .  A
C310        O311   1.280       .  A
C310        C773   1.498       .  S
O311       Al313   1.988       .  S
O312        C314   1.254       .  A
O312       Al313   1.881       .  S
Al313       O321   1.938       .  S
Al313       O323   1.977       .  S
Al313       O322   1.785       .  S
C314        O327   1.256       .  A
C314        C440   1.476       .  S
O315        C325   1.253       .  A
O315       Al317   1.884       .  S
O316        C329   1.263       .  A
O316      Al1254   1.893       .  S
Al317       O327   1.900       .  S
Al317      O1258   1.919       .  S
Al317       O322   1.792       .  S
O318        C325   1.249       .  A
O318       Al326   1.844       .  S
O319        C328   1.250       .  A
O319       Al326   1.872       .  S
O320       Al326   1.869       .  S
O321        C328   1.261       .  A
O322       Al326   1.796       .  S
O323        C324   1.278       .  A
C324        C377   1.493       .  S
C325        C665   1.435       .  S
Al326      O1244   1.895   1_455  S
C328        C353   1.480       .  S
C329        O330   1.264       .  A
C329        C428   1.464       .  S
O330      Al1245   1.915       .  S
O331        C346   1.255       .  A
O331       Al339   1.854       .  S
C332        O342   1.252       .  A
C332        O333   1.282       .  A
C332        C689   1.510       .  S
O333       Al335   2.001       .  S
O334        C336   1.257       .  A
O334       Al335   1.893       .  S
Al335       O343   1.943       .  S
Al335       O345   2.003       .  S
Al335       O344   1.781       .  S
C336        O349   1.258       .  A
C336        C404   1.465       .  S
O337        C347   1.258       .  A
O337       Al339   1.891       .  S
O338        C351   1.257   1_655  A
O338      Al1276   1.882       .  S
Al339       O349   1.912       .  S
Al339      O1280   1.916       .  S
Al339       O344   1.785       .  S
O340        C347   1.256       .  A
O340       Al348   1.856       .  S
O341        C350   1.255       .  A
O341       Al348   1.885       .  S
O342       Al348   1.846       .  S
O343        C350   1.266       .  A
O344       Al348   1.780       .  S
O345        C346   1.281       .  A
C346        C368   1.511       .  S
C347        C620   1.440       .  S
Al348      O1266   1.877       .  S
C350        C356   1.486       .  S
C351        O352   1.261   1_455  A
C351        C413   1.463       .  S
O352      Al1267   1.915       .  S
C353        C354   1.399       .  A
C353       C1286   1.417   1_455  A
C354       C1283   1.407       .  A
C354        H363   1.083       .  S
C355        C356   1.418       .  A
C355       C1282   1.407       .  A
C355        S359   1.804       .  S
C356        C357   1.400       .  A
C357        C358   1.405       .  A
C357        H364   1.084       .  S
C358       C1281   1.417       .  A
C358        S360   1.802       .  S
S359        H362   1.407       .  S
S360       H1289   1.407       .  S
H361       S1288   1.407       .  S
C365        C366   1.410       .  A
C365        C370   1.406       .  A
C366        C367   1.414       .  A
C366        H375   1.084       .  S
C367        C368   1.418       .  A
C367        S371   1.798       .  S
C368        C369   1.417       .  A
C369        C370   1.401       .  A
C369        H376   1.083       .  S
C370        S372   1.804       .  S
S371        H374   1.407       .  S
S372        H373   1.406       .  S
C377        C378   1.417   1_545  A
C377        C382   1.405       .  A
C378        C379   1.409       .  A
C378        H387   1.084       .  S
C379        C380   1.408       .  A
C379        S383   1.801       .  S
C380        C381   1.418   1_565  A
C381        C382   1.404       .  A
C381        H388   1.084       .  S
C382        S384   1.802       .  S
S383        H386   1.407       .  S
S384        H385   1.407       .  S
C389        C390   1.409       .  A
C389        C394   1.409       .  A
C390        C391   1.407       .  A
C390        H399   1.084       .  S
C391       C1320   1.411       .  A
C391       S1323   1.799       .  S
C392        C393   1.409   1_455  A
C392       C1319   1.412       .  A
C393       C1322   1.402       .  A
C393        H400   1.084       .  S
C394       C1321   1.403       .  A
C394        S396   1.802       .  S
S395       C1319   1.799       .  S
S395        H398   1.406       .  S
S396        H397   1.405       .  S
C401        C402   1.407       .  A
C401        C406   1.411       .  A
C402        C403   1.398       .  A
C402        H411   1.082       .  S
C403        C404   1.403       .  A
C403        S407   1.808       .  S
C404        C405   1.404       .  A
C405        C406   1.406       .  A
C405        H412   1.082       .  S
C406        S408   1.807       .  S
S407        H410   1.406       .  S
S408        H409   1.407       .  S
C413        C414   1.397       .  A
C413        C418   1.410       .  A
C414        C415   1.398       .  A
C414        H423   1.083       .  S
C415        C416   1.419       .  A
C415        S419   1.811       .  S
C416        C417   1.403       .  A
C417        C418   1.396       .  A
C417        H424   1.084       .  S
C418        S420   1.800       .  S
S419        H422   1.407       .  S
S420        H421   1.406       .  S
C425        C426   1.406       .  A
C425        C430   1.414   1_565  A
C426        C427   1.394   1_565  A
C426        H435   1.084       .  S
C427        C428   1.405       .  A
C427        S431   1.801       .  S
C428        C429   1.404       .  A
C429        C430   1.401       .  A
C429        H436   1.084       .  S
C430        S432   1.803       .  S
S431        H434   1.406       .  S
S432        H433   1.408   1_545  S
C437        C438   1.411       .  A
C437        C442   1.420   1_565  A
C438        C439   1.397       .  A
C438        H447   1.083       .  S
C439        C440   1.409   1_565  A
C439        S443   1.803       .  S
C440        C441   1.402       .  A
C441        C442   1.400       .  A
C441        H448   1.083       .  S
C442        S444   1.809       .  S
S443        H446   1.407   1_565  S
S444        H445   1.407       .  S
C449        C450   1.413       .  A
C449        C454   1.413       .  A
C450        C451   1.408       .  A
C450        H459   1.084       .  S
C451        C452   1.415       .  A
C451        S455   1.799       .  S
C452        C453   1.413       .  A
C453        C454   1.405       .  A
C453        H460   1.084       .  S
C454        S456   1.799       .  S
S455        H458   1.408       .  S
S456        H457   1.407       .  S
C461        C462   1.407       .  A
C461        C466   1.424       .  A
C462        C463   1.394       .  A
C462        H471   1.083       .  S
C463        C464   1.409       .  A
C463        S467   1.803       .  S
C464        C465   1.399       .  A
C465        C466   1.406       .  A
C465        H472   1.083       .  S
C466        S468   1.810       .  S
S467        H470   1.404       .  S
S468        H469   1.406       .  S
C473        C474   1.407       .  A
C473        C478   1.415       .  A
C474        C475   1.385       .  A
C474        H483   1.082       .  S
C475        C476   1.405       .  A
C475        S479   1.801       .  S
C476        C477   1.405       .  A
C477        C478   1.405       .  A
C477        H484   1.084       .  S
C478        S480   1.800       .  S
S479        H482   1.403       .  S
S480        H481   1.407       .  S
C485        C486   1.418       .  A
C485        C490   1.410       .  A
C486        C487   1.410       .  A
C486        H495   1.084       .  S
C487        C488   1.408       .  A
C487        S491   1.799       .  S
C488        C489   1.416       .  A
C489        C490   1.406       .  A
C489        H496   1.084       .  S
C490        S492   1.799       .  S
S491        H494   1.406       .  S
S492        H493   1.407       .  S
C497        C498   1.405       .  A
C497        C502   1.413   1_565  A
C498        C499   1.402       .  A
C498        H507   1.084       .  S
C499        C500   1.418   1_565  A
C499        S503   1.801       .  S
C500        C501   1.407       .  A
C501        C502   1.392       .  A
C501        H508   1.083       .  S
C502        S504   1.804       .  S
S503        H506   1.408       .  S
S504        H505   1.405       .  S
C509        C510   1.409   1_545  A
C509        C514   1.421       .  A
C510        C511   1.393       .  A
C510        H519   1.084       .  S
C511        C512   1.407       .  A
C511        S515   1.802       .  S
C512        C513   1.398   1_565  A
C513        C514   1.394       .  A
C513        H520   1.085       .  S
C514        S516   1.803       .  S
S515        H518   1.406       .  S
S516        H517   1.403       .  S
C521        C522   1.415       .  A
C521        C526   1.411       .  A
C522        C523   1.409   1_545  A
C522        H531   1.084   1_545  S
C523        C524   1.410       .  A
C523        S527   1.803       .  S
C524        C525   1.413   1_565  A
C525        C526   1.410       .  A
C525        H532   1.084       .  S
C526        S528   1.799       .  S
S527        H530   1.406       .  S
S528        H529   1.406       .  S
C533        C534   1.402       .  A
C533        C538   1.422       .  A
C534        C535   1.406       .  A
C534        H543   1.084       .  S
C535        C536   1.422       .  A
C535        S539   1.805       .  S
C536        C537   1.401       .  A
C537        C538   1.406       .  A
C537        H544   1.084       .  S
C538        S540   1.803       .  S
S539        H542   1.408       .  S
S540        H541   1.407       .  S
C545        C546   1.395       .  A
C545       C1478   1.402       .  A
C546        C547   1.386       .  A
C546        H555   1.083       .  S
C547       C1476   1.418       .  A
C547        S551   1.813       .  S
C548        C549   1.411       .  A
C548       C1475   1.419   1_455  A
C549        C550   1.395   1_455  A
C549        H556   1.083       .  S
C550       C1473   1.399       .  A
C550        S552   1.805       .  S
S551        H554   1.407       .  S
S552        H553   1.407       .  S
C557        C558   1.414       .  A
C557        C562   1.416       .  A
C558        C559   1.424       .  A
C558        H567   1.083       .  S
C559        C560   1.418       .  A
C559        S563   1.801       .  S
C560        C561   1.401       .  A
C561        C562   1.406       .  A
C561        H568   1.082       .  S
C562        S564   1.800       .  S
S563        H566   1.405       .  S
S564        H565   1.406       .  S
C569        C570   1.414   1_455  A
C569        C574   1.413       .  A
C570       C1499   1.407       .  A
C570        H579   1.084       .  S
C571        C572   1.412       .  A
C571       C1498   1.407       .  A
C571        S575   1.798       .  S
C572        C573   1.412       .  A
C573       C1502   1.406       .  A
C573        H580   1.085       .  S
C574       C1501   1.407       .  A
C574        S576   1.799       .  S
S575        H578   1.407       .  S
S576        H577   1.407       .  S
C581        C586   1.413       .  A
C581       C1510   1.408   1_545  A
C582        C583   1.384       .  A
C582       C1509   1.408   1_465  A
C582        H591   1.084       .  S
C583        C584   1.400   1_565  A
C583        S587   1.805       .  S
C584       C1513   1.400       .  A
C585        C586   1.391       .  A
C585       C1512   1.398       .  A
C585        H592   1.085       .  S
C586        S588   1.801       .  S
S587        H590   1.407       .  S
S588        H589   1.404       .  S
C593        C594   1.413       .  A
C593        C598   1.417       .  A
C594        C595   1.424       .  A
C594        H603   1.083       .  S
C595        C596   1.419       .  A
C595        S599   1.802       .  S
C596        C597   1.403       .  A
C597        C598   1.411       .  A
C597        H604   1.083       .  S
C598        S600   1.803       .  S
S599        H602   1.405       .  S
S600        H601   1.406       .  S
C605        C606   1.417   1_554  A
C605        C610   1.424       .  A
C606        C607   1.419       .  A
C606        H615   1.083       .  S
C607        C608   1.417       .  A
C607        S611   1.800       .  S
C608        C609   1.413       .  A
C609        C610   1.418   1_556  A
C609        H616   1.082       .  S
C610        S612   1.810       .  S
S611        H614   1.407       .  S
S612        H613   1.406       .  S
C617        C622   1.413   1_554  A
C617       C1546   1.407   1_455  A
C618        C619   1.389       .  A
C618       C1545   1.407       .  A
C618        H627   1.083       .  S
C619        C620   1.403   1_554  A
C619        S623   1.804       .  S
C620       C1549   1.400       .  A
C621        C622   1.392   1_655  A
C621       C1548   1.400       .  A
C621        H628   1.085       .  S
C622        S624   1.804       .  S
S623        H626   1.408   1_554  S
S624        H625   1.407       .  S
C629        C630   1.419       .  A
C629        C634   1.407       .  A
C630        C631   1.408       .  A
C630        H639   1.084       .  S
C631        C632   1.408       .  A
C631        S635   1.798       .  S
C632        C633   1.420       .  A
C633        C634   1.406       .  A
C633        H640   1.084       .  S
C634        S636   1.801       .  S
S635        H638   1.407       .  S
S636        H637   1.406       .  S
C641        C642   1.417   1_565  A
C641        C646   1.409       .  A
C642        C643   1.404       .  A
C642        H651   1.084       .  S
C643        C644   1.408       .  A
C643        S647   1.799       .  S
C644        C645   1.418   1_545  A
C645        C646   1.410       .  A
C645        H652   1.084       .  S
C646       S1576   1.798       .  S
S647        H650   1.407       .  S
S648       C1574   1.798       .  S
S648        H649   1.407       .  S
C653        C654   1.410       .  A
C653        C658   1.433       .  A
C654        C655   1.416       .  A
C654        H663   1.083       .  S
C655       C1584   1.419       .  A
C655       S1587   1.802       .  S
C656        C657   1.394       .  A
C656       C1583   1.417   1_455  A
C657       C1586   1.403       .  A
C657        H664   1.083       .  S
C658       C1585   1.400       .  A
C658        S660   1.803       .  S
S659       C1583   1.803       .  S
S659        H662   1.406       .  S
S660        H661   1.408       .  S
C665        C666   1.397   1_545  A
C665       C1598   1.400   1_556  A
C666        C667   1.393   1_455  A
C666        H675   1.084       .  S
C667       C1596   1.413   1_556  A
C667        S671   1.807       .  S
C668        C669   1.405   1_565  A
C668       C1595   1.411   1_554  A
C669        C670   1.386       .  A
C669        H676   1.081       .  S
C670       C1593   1.399   1_554  A
C670        S672   1.805       .  S
S671        H674   1.406       .  S
S672        H673   1.406       .  S
C677        C678   1.412       .  A
C677        C682   1.415       .  A
C678        C679   1.416   1_556  A
C678        H687   1.082       .  S
C679        C680   1.422       .  A
C679        S683   1.810       .  S
C680        C681   1.416   1_554  A
C681        C682   1.413       .  A
C681        H688   1.083       .  S
C682        S684   1.801       .  S
S683        H686   1.406       .  S
S684        H685   1.407       .  S
C689        C690   1.418       .  A
C689        C694   1.410       .  A
C690        C691   1.413   1_556  A
C690        H699   1.082       .  S
C691        C692   1.412       .  A
C691        S695   1.808       .  S
C692        C693   1.419   1_554  A
C693        C694   1.413       .  A
C693        H700   1.082       .  S
C694        S696   1.806       .  S
S695        H698   1.406       .  S
S696        H697   1.407       .  S
C701        C702   1.406       .  A
C701        C706   1.417       .  A
C702        C703   1.394   1_556  A
C702        H711   1.082       .  S
C703        C704   1.406       .  A
C703        S707   1.807       .  S
C704        C705   1.397   1_554  A
C705        C706   1.383       .  A
C705        H712   1.086       .  S
C706        S708   1.805       .  S
S707        H710   1.406       .  S
S708        H709   1.408       .  S
C713        C714   1.401       .  A
C713        C718   1.409       .  A
C714        C715   1.398       .  A
C714        H723   1.084       .  S
C715        C716   1.418       .  A
C715        S719   1.803       .  S
C716        C717   1.409       .  A
C717        C718   1.396       .  A
C717        H724   1.083       .  S
C718        S720   1.804       .  S
S719        H722   1.406       .  S
S720        H721   1.407       .  S
C725        C726   1.395       .  A
C725        C730   1.413       .  A
C726        C727   1.394       .  A
C726        H735   1.085       .  S
C727        C728   1.422       .  A
C727        S731   1.802       .  S
C728        C729   1.403       .  A
C729        C730   1.398       .  A
C729        H736   1.084       .  S
C730        S732   1.800       .  S
S731        H734   1.402       .  S
S732        H733   1.405       .  S
C737        C738   1.406   1_565  A
C737        C742   1.418       .  A
C738        C739   1.400       .  A
C738        H747   1.082       .  S
C739        C740   1.410       .  A
C739        S743   1.809       .  S
C740        C741   1.400   1_545  A
C741        C742   1.403       .  A
C741        H748   1.083       .  S
C742        S744   1.810       .  S
S743        H746   1.407       .  S
S744        H745   1.407       .  S
C749        C750   1.398   1_565  A
C749        C754   1.405       .  A
C750        C751   1.397       .  A
C750        H759   1.084       .  S
C751        C752   1.423       .  A
C751        S755   1.804       .  S
C752        C753   1.407   1_545  A
C753        C754   1.397       .  A
C753        H760   1.083       .  S
C754        S756   1.799       .  S
S755        H758   1.407       .  S
S756        H757   1.406       .  S
C761        C762   1.408       .  A
C761        C766   1.410       .  A
C762        C763   1.406       .  A
C762        H771   1.084       .  S
C763        C764   1.410       .  A
C763        S767   1.801       .  S
C764        C765   1.408       .  A
C765        C766   1.405       .  A
C765        H772   1.084       .  S
C766        S768   1.800       .  S
S767        H770   1.405       .  S
S768        H769   1.405       .  S
C773        C774   1.397       .  A
C773        C778   1.422       .  A
C774        C775   1.396   1_556  A
C774        H783   1.086       .  S
C775        C776   1.420       .  A
C775        S779   1.798       .  S
C776        C777   1.414       .  A
C777        C778   1.428   1_554  A
C777        H784   1.083       .  S
C778        S780   1.802       .  S
S779        H782   1.399       .  S
S780        H781   1.405       .  S
C785        C786   1.406   1_556  A
C785        C790   1.421   1_565  A
C786        C787   1.393       .  A
C786        H795   1.084       .  S
C787        C788   1.405       .  A
C787        S791   1.801       .  S
C788        C789   1.397   1_564  A
C789        C790   1.387       .  A
C789        H796   1.085       .  S
C790        S792   1.805       .  S
S791        H794   1.407       .  S
S792        H793   1.408       .  S
C797        C798   1.400       .  A
C797        C802   1.422       .  A
C798        C799   1.398       .  A
C798        H807   1.086       .  S
C799        C800   1.419       .  A
C799        S803   1.801       .  S
C800        C801   1.413       .  A
C801        C802   1.426       .  A
C801        H808   1.083       .  S
C802        S804   1.804       .  S
S803        H806   1.398       .  S
S804        H805   1.403       .  S
C809        C810   1.402       .  A
C809        C814   1.397       .  A
C810        C811   1.397       .  A
C810        H819   1.084       .  S
C811        C812   1.409       .  A
C811        S815   1.807       .  S
C812        C813   1.406       .  A
C813        C814   1.384       .  A
C813        H820   1.082       .  S
C814        S816   1.805       .  S
S815        H818   1.407       .  S
S816        H817   1.407       .  S
C821        C822   1.406       .  A
C821        C826   1.416       .  A
C822        C823   1.406       .  A
C822        H831   1.083       .  S
C823        C824   1.416       .  A
C823        S827   1.809       .  S
C824        C825   1.406       .  A
C825        C826   1.402       .  A
C825        H832   1.082       .  S
C826        S828   1.810       .  S
S827        H830   1.407       .  S
S828        H829   1.407       .  S
C833        C834   1.404       .  A
C833        C838   1.420       .  A
C834        C835   1.400       .  A
C834        H843   1.083       .  S
C835        C836   1.413       .  A
C835        S839   1.799       .  S
C836        C837   1.399       .  A
C837        C838   1.397       .  A
C837        H844   1.084       .  S
C838        S840   1.803       .  S
S839        H842   1.406       .  S
S840        H841   1.406       .  S
C845        C846   1.418       .  A
C845        C850   1.410       .  A
C846        C847   1.402       .  A
C846        H855   1.083       .  S
C847        C848   1.403       .  A
C847        S851   1.803       .  S
C848        C849   1.414       .  A
C849        C850   1.408       .  A
C849        H856   1.084       .  S
C850        S852   1.801       .  S
S851        H854   1.406       .  S
S852        H853   1.407       .  S
C857        C858   1.395       .  A
C857        C862   1.414       .  A
C858        C859   1.393       .  A
C858        H867   1.081       .  S
C859        C860   1.419       .  A
C859        S863   1.800   1_565  S
C860        C861   1.403       .  A
C861        C862   1.400       .  A
C861        H868   1.084       .  S
C862        S864   1.800       .  S
S863        H866   1.404       .  S
S864        H865   1.405       .  S
C869        C870   1.403   1_565  A
C869        C874   1.414       .  A
C870        C871   1.401       .  A
C870        H879   1.084       .  S
C871        C872   1.419       .  A
C871        S875   1.801       .  S
C872        C873   1.405   1_545  A
C873        C874   1.394       .  A
C873        H880   1.084       .  S
C874        S876   1.803       .  S
S875        H878   1.405       .  S
S876        H877   1.407       .  S
C881        C882   1.409       .  A
C881        C886   1.417       .  A
C882        C883   1.417   1_565  A
C882        H891   1.083       .  S
C883        C884   1.420       .  A
C883        S887   1.800       .  S
C884        C885   1.406       .  A
C885        C886   1.402   1_545  A
C885        H892   1.084       .  S
C886        S888   1.804       .  S
S887        H890   1.405       .  S
S888        H889   1.407       .  S
C893        C894   1.408       .  A
C893        C898   1.411       .  A
C894        C895   1.406       .  A
C894        H903   1.084       .  S
C895        C896   1.410       .  A
C895        S899   1.801       .  S
C896        C897   1.409       .  A
C897        C898   1.406       .  A
C897        H904   1.084       .  S
C898        S900   1.802       .  S
S899        H902   1.404       .  S
S900        H901   1.405       .  S
C905        C906   1.420       .  A
C905        C910   1.414       .  A
C906        C907   1.414       .  A
C906        H915   1.082       .  S
C907        C908   1.412       .  A
C907        S911   1.807       .  S
C908        C909   1.418       .  A
C909        C910   1.414       .  A
C909        H916   1.083       .  S
C910        S912   1.799       .  S
S911        H914   1.406       .  S
S912        H913   1.407       .  S
C917        C918   1.396       .  A
C917        C922   1.406   1_565  A
C918        C919   1.386       .  A
C918        H927   1.086       .  S
C919        C920   1.420   1_565  A
C919        S923   1.804       .  S
C920        C921   1.405       .  A
C921        C922   1.394       .  A
C921        H928   1.083       .  S
C922        S924   1.807       .  S
S923        H926   1.408       .  S
S924        H925   1.407       .  S
O929        C944   1.254       .  A
O929       Al937   1.851       .  S
C930        O940   1.255       .  A
C930        O931   1.281       .  A
C930       C1833   1.514       .  S
O931       Al933   1.995       .  S
O932        C934   1.254       .  A
O932       Al933   1.872       .  S
Al933       O941   1.929       .  S
Al933       O943   1.996       .  S
Al933       O942   1.773       .  S
C934        O947   1.261       .  A
C934       C1797   1.470       .  S
O935        C945   1.255       .  A
O935       Al937   1.885       .  S
O936        C949   1.262       .  A
O936       Al946   1.892       .  S
Al937       O950   1.922       .  S
Al937       O947   1.915       .  S
Al937       O942   1.781       .  S
O938        C945   1.259       .  A
O938       Al946   1.865       .  S
O939        C948   1.256       .  A
O939       Al946   1.892       .  S
O940       Al946   1.862       .  S
O941        C948   1.263       .  A
O942       Al946   1.777       .  S
O943        C944   1.279       .  A
C944       C1809   1.492       .  S
C945       C1845   1.440   1_565  S
C948       C1821   1.479       .  S
C949        O950   1.266       .  A
C949       C1785   1.468       .  S
O951        C966   1.255       .  A
O951       Al959   1.860       .  S
C952        O962   1.254       .  A
C952        O953   1.279       .  A
C952       C1725   1.489       .  S
O953       Al955   1.985       .  S
O954        C956   1.257       .  A
O954       Al955   1.888       .  S
Al955       O963   1.938       .  S
Al955       O965   1.990       .  S
Al955       O964   1.779       .  S
C956        O969   1.261       .  A
C956       C1749   1.484       .  S
O957        C967   1.257       .  A
O957       Al959   1.888       .  S
O958        C971   1.264       .  A
O958       Al968   1.901       .  S
Al959       O972   1.911       .  S
Al959       O969   1.918       .  S
Al959       O964   1.782       .  S
O960        C967   1.254       .  A
O960       Al968   1.862       .  S
O961        C970   1.254       .  A
O961       Al968   1.884       .  S
O962       Al968   1.859       .  S
O963        C970   1.265       .  A
O964       Al968   1.788       .  S
O965        C966   1.277       .  A
C966       C1773   1.500       .  S
C967       C1737   1.437       .  S
C970       C1824   1.481       .  S
C971        O972   1.265       .  A
C971       C1764   1.469       .  S
O973        C988   1.251       .  A
O973       Al981   1.844       .  S
C974        O984   1.257       .  A
C974        O975   1.287       .  A
C974       C1704   1.503       .  S
O975       Al977   2.013       .  S
O976        C978   1.251       .  A
O976       Al977   1.860       .  S
Al977       O985   1.936       .  S
Al977       O987   1.978       .  S
Al977       O986   1.780       .  S
C978        O991   1.261       .  A
C978       C1680   1.482       .  S
O979        C989   1.254       .  A
O979       Al981   1.893       .  S
O980        C993   1.267       .  A
O980       Al990   1.892       .  S
Al981       O994   1.916       .  S
Al981       O991   1.907       .  S
Al981       O986   1.784       .  S
O982        C989   1.251       .  A
O982       Al990   1.859       .  S
O983        C992   1.250       .  A
O983       Al990   1.886       .  S
O984       Al990   1.859       .  S
O985        C992   1.259       .  A
O986       Al990   1.787       .  S
O987        C988   1.276       .  A
C988       C1812   1.489       .  S
C989       C1716   1.447   1_545  S
C992       C1689   1.481       .  S
C993        O994   1.269       .  A
C993       C1668   1.462       .  S
O995       C1010   1.253       .  A
O995      Al1003   1.851       .  S
C996       O1006   1.255       .  A
C996        O997   1.284       .  A
C996       C1620   1.518       .  S
O997       Al999   2.006       .  S
O998       C1000   1.256       .  A
O998       Al999   1.887       .  S
Al999      O1007   1.939       .  S
Al999      O1009   1.989       .  S
Al999      O1008   1.781       .  S
C1000      O1013   1.259       .  A
C1000      C1641   1.471       .  S
O1001      C1011   1.253       .  A
O1001     Al1003   1.884       .  S
O1002      C1015   1.263       .  A
O1002     Al1012   1.898       .  S
Al1003     O1016   1.921       .  S
Al1003     O1013   1.908       .  S
Al1003     O1008   1.780       .  S
O1004      C1011   1.255       .  A
O1004     Al1012   1.865       .  S
O1005      C1014   1.253       .  A
O1005     Al1012   1.886       .  S
O1006     Al1012   1.854       .  S
O1007      C1014   1.262       .  A
O1008     Al1012   1.788       .  S
O1009      C1010   1.278       .  A
C1010      C1776   1.490       .  S
C1011      C1632   1.441       .  S
C1014      C1692   1.484       .  S
C1015      O1016   1.268       .  A
C1015      C1653   1.476       .  S
O1017      C1032   1.262       .  A
C1018      O1028   1.269       .  A
C1018      O1019   1.266       .  A
C1018      C1608   1.526       .  S
O1019     Al1021   1.933       .  S
O1020      C1022   1.244       .  A
O1020     Al1021   1.861       .  S
Al1021     O1029   1.857       .  S
Al1021     O1030   1.767       .  S
C1022      O1035   1.255       .  A
C1022      C1596   1.463       .  S
O1023      C1033   1.264       .  A
O1023     Al1025   1.884       .  S
O1024      C1037   1.284       .  A
O1024     Al1034   1.980       .  S
Al1025     O1038   1.880       .  S
Al1025     O1035   1.897       .  S
Al1025     O1030   1.783       .  S
O1026      C1033   1.266       .  A
O1026     Al1034   1.923       .  S
O1027      C1036   1.276       .  A
O1027     Al1034   1.993       .  S
O1028     Al1034   1.946       .  S
O1029      C1036   1.248       .  A
O1030     Al1034   1.770       .  S
O1031      C1032   1.268       .  A
C1032      C1677   1.464       .  S
C1033      C1665   1.478       .  S
C1036      C1581   1.513       .  S
C1037      O1038   1.258       .  A
C1037      C1569   1.506       .  S
O1039      C1054   1.263   1_455  A
C1040      O1050   1.270       .  A
C1040      O1041   1.267       .  A
C1040      C1533   1.527       .  S
O1041     Al1043   1.938       .  S
O1042      C1044   1.247       .  A
O1042     Al1043   1.862       .  S
Al1043     O1051   1.882       .  S
Al1043     O1052   1.775       .  S
C1044      O1057   1.258       .  A
C1044      C1545   1.464       .  S
O1045      C1055   1.269       .  A
O1045     Al1047   1.913       .  S
O1046      C1059   1.284       .  A
O1046     Al1056   1.980       .  S
Al1047     O1060   1.886       .  S
Al1047     O1057   1.911       .  S
Al1047     O1052   1.789       .  S
O1048      C1055   1.262       .  A
O1048     Al1056   1.906       .  S
O1049      C1058   1.272       .  A
O1049     Al1056   1.974       .  S
O1050     Al1056   1.949       .  S
O1051      C1058   1.252       .  A
O1052     Al1056   1.766       .  S
O1053      C1054   1.270       .  A
C1054      C1644   1.489       .  S
C1055      C1656   1.491       .  S
C1058      C1584   1.491       .  S
C1059      O1060   1.258       .  A
C1059      C1557   1.499       .  S
O1061      C1076   1.263       .  A
C1062      O1072   1.267       .  A
C1062      O1063   1.264       .  A
C1062      C1524   1.507       .  S
O1063     Al1065   1.937       .  S
O1064      C1066   1.249       .  A
O1064     Al1065   1.865       .  S
Al1065     O1073   1.870       .  S
Al1065     O1074   1.783       .  S
C1066      O1079   1.257       .  A
C1066      C1509   1.462       .  S
O1067      C1077   1.265       .  A
O1067     Al1069   1.901       .  S
O1068      C1081   1.281       .  A
O1068     Al1078   1.970       .  S
Al1069     O1082   1.884       .  S
Al1069     O1079   1.893       .  S
Al1069     O1074   1.780       .  S
O1070      C1077   1.264       .  A
O1070     Al1078   1.911       .  S
O1071      C1080   1.273       .  A
O1071     Al1078   1.974       .  S
O1072     Al1078   1.943       .  S
O1073      C1080   1.254       .  A
O1074     Al1078   1.769       .  S
O1075      C1076   1.267       .  A
C1076      C1800   1.480       .  S
C1077      C1788   1.481       .  S
C1080      C1500   1.503       .  S
C1081      O1082   1.258       .  A
C1081      C1572   1.505       .  S
O1083      C1098   1.264   1_455  A
C1084      O1094   1.270       .  A
C1084      O1085   1.266       .  A
C1084      C1485   1.525       .  S
O1085     Al1087   1.933       .  S
O1086      C1088   1.249       .  A
O1086     Al1087   1.861       .  S
Al1087     O1095   1.864       .  S
Al1087     O1096   1.778       .  S
C1088      O1101   1.254       .  A
C1088      C1476   1.465       .  S
O1089      C1099   1.265       .  A
O1089     Al1091   1.901       .  S
O1090      C1103   1.283       .  A
O1090     Al1100   1.979       .  S
Al1091     O1104   1.883       .  S
Al1091     O1101   1.893       .  S
Al1091     O1096   1.778       .  S
O1092      C1099   1.265       .  A
O1092     Al1100   1.919       .  S
O1093      C1102   1.274       .  A
O1093     Al1100   1.983       .  S
O1094     Al1100   1.953       .  S
O1095      C1102   1.253       .  A
O1096     Al1100   1.772       .  S
O1097      C1098   1.267       .  A
C1098      C1752   1.487       .  S
C1099      C1761   1.485       .  S
C1102      C1497   1.501       .  S
C1103      O1104   1.258       .  A
C1103      C1560   1.505       .  S
O1105      C1120   1.265       .  A
O1105     Al1113   1.890       .  S
C1106      O1116   1.270       .  A
C1106      O1107   1.263       .  A
C1106      C1521   1.515       .  S
O1107     Al1109   1.934       .  S
O1108      C1110   1.250       .  A
O1108     Al1109   1.865       .  S
Al1109     O1117   1.863       .  S
Al1109     O1119   1.927       .  S
Al1109     O1118   1.779       .  S
C1110      O1123   1.252       .  A
C1110      C1848   1.467       .  S
O1111      C1121   1.262       .  A
O1111     Al1113   1.886       .  S
O1112      C1125   1.280       .  A
O1112     Al1122   1.973       .  S
Al1113     O1126   1.875       .  S
Al1113     O1123   1.891       .  S
Al1113     O1118   1.783       .  S
O1114      C1121   1.268       .  A
O1114     Al1122   1.916       .  S
O1115      C1124   1.274       .  A
O1115     Al1122   1.978       .  S
O1116     Al1122   1.959       .  S
O1117      C1124   1.253       .  A
O1118     Al1122   1.768       .  S
O1119      C1120   1.265       .  A
C1120      C1437   1.486       .  S
C1121      C1428   1.481       .  S
C1124      C1461   1.496       .  S
C1125      O1126   1.255       .  A
C1125      C1449   1.498       .  S
O1127      C1142   1.265       .  A
O1127     Al1135   1.891       .  S
C1128      O1138   1.269       .  A
C1128      O1129   1.264       .  A
C1128      C1488   1.529       .  S
O1129     Al1131   1.926       .  S
O1130      C1132   1.250       .  A
O1130     Al1131   1.870       .  S
Al1131     O1139   1.864       .  S
Al1131     O1141   1.926       .  S
Al1131     O1140   1.782       .  S
C1132      O1145   1.257       .  A
C1132      C1740   1.458       .  S
O1133      C1143   1.264       .  A
O1133     Al1135   1.898       .  S
O1134      C1147   1.280       .  A
O1134     Al1144   1.973       .  S
Al1135     O1148   1.882       .  S
Al1135     O1145   1.892       .  S
Al1135     O1140   1.781       .  S
O1136      C1143   1.266       .  A
O1136     Al1144   1.912       .  S
O1137      C1146   1.274       .  A
O1137     Al1144   1.980       .  S
O1138     Al1144   1.957       .  S
O1139      C1146   1.253       .  A
O1140     Al1144   1.771       .  S
O1141      C1142   1.265       .  A
C1142      C1389   1.486       .  S
C1143      C1404   1.480       .  S
C1146      C1464   1.498       .  S
C1147      O1148   1.256       .  A
C1147      C1413   1.502       .  S
O1149      C1164   1.265       .  A
O1149     Al1157   1.900       .  S
C1150      O1160   1.270       .  A
C1150      O1151   1.266       .  A
C1150      C1605   1.521       .  S
O1151     Al1153   1.929       .  S
O1152      C1154   1.251       .  A
O1152     Al1153   1.872       .  S
Al1153     O1161   1.868       .  S
Al1153     O1163   1.923       .  S
Al1153     O1162   1.777       .  S
C1154      O1167   1.253       .  A
C1154      C1713   1.471       .  S
O1155      C1165   1.265       .  A
O1155     Al1157   1.902       .  S
O1156      C1169   1.281       .  A
O1156     Al1166   1.971       .  S
Al1157     O1170   1.885       .  S
Al1157     O1167   1.891       .  S
Al1157     O1162   1.779       .  S
O1158      C1165   1.266       .  A
O1158     Al1166   1.923       .  S
O1159      C1168   1.272       .  A
O1159     Al1166   1.976       .  S
O1160     Al1166   1.949       .  S
O1161      C1168   1.253       .  A
O1162     Al1166   1.774       .  S
O1163      C1164   1.267       .  A
C1164      C1365   1.492       .  S
C1165      C1353   1.481       .  S
C1168      C1377   1.502       .  S
C1169      O1170   1.258       .  A
C1169      C1452   1.493       .  S
O1171      C1186   1.264       .  A
O1171     Al1179   1.896       .  S
C1172      O1182   1.270       .  A
C1172      O1173   1.266       .  A
C1172      C1536   1.526       .  S
O1173     Al1175   1.929       .  S
O1174      C1176   1.251       .  A
O1174     Al1175   1.872       .  S
Al1175     O1183   1.875       .  S
Al1175     O1185   1.921       .  S
Al1175     O1184   1.778       .  S
C1176      O1189   1.249       .  A
C1176      C1629   1.467       .  S
O1177      C1187   1.266       .  A
O1177     Al1179   1.900       .  S
O1178      C1191   1.281       .  A
O1178     Al1188   1.980       .  S
Al1179     O1192   1.882       .  S
Al1179     O1189   1.881       .  S
Al1179     O1184   1.783       .  S
O1180      C1187   1.264       .  A
O1180     Al1188   1.907       .  S
O1181      C1190   1.269       .  A
O1181     Al1188   1.961       .  S
O1182     Al1188   1.953       .  S
O1183      C1190   1.254       .  A
O1184     Al1188   1.769       .  S
O1185      C1186   1.269       .  A
C1186      C1329   1.489       .  S
C1187      C1344   1.472       .  S
C1190      C1380   1.501       .  S
C1191      O1192   1.255       .  A
C1191      C1416   1.499       .  S
O1193      C1208   1.254       .  A
O1193     Al1201   1.857       .  S
C1194      O1204   1.258       .  A
C1194      O1195   1.280       .  A
C1194      C1836   1.512       .  S
O1195     Al1197   1.986       .  S
O1196      C1198   1.257       .  A
O1196     Al1197   1.889       .  S
Al1197     O1205   1.938       .  S
Al1197     O1207   1.974       .  S
Al1197     O1206   1.780       .  S
C1198      O1211   1.257       .  A
C1198      C1440   1.466       .  S
O1199      C1209   1.254       .  A
O1199     Al1201   1.884       .  S
O1200      C1213   1.263       .  A
Al1201     O1211   1.895       .  S
Al1201     O1206   1.784       .  S
O1202      C1209   1.256       .  A
O1202     Al1210   1.865       .  S
O1203      C1212   1.254       .  A
O1203     Al1210   1.885       .  S
O1204     Al1210   1.872       .  S
O1205      C1212   1.263       .  A
O1206     Al1210   1.783       .  S
O1207      C1208   1.275       .  A
C1208      C1308   1.479       .  S
C1209      C1512   1.437   1_565  S
C1212      C1320   1.487       .  S
C1213      O1214   1.264   1_655  A
C1213      C1425   1.463       .  S
O1215      C1230   1.254       .  A
O1215     Al1223   1.852       .  S
C1216      O1226   1.257       .  A
C1216      O1217   1.279       .  A
C1216      C1728   1.502       .  S
O1217     Al1219   1.992       .  S
O1218      C1220   1.255       .  A
O1218     Al1219   1.883       .  S
Al1219     O1227   1.937       .  S
Al1219     O1229   1.978       .  S
Al1219     O1228   1.785       .  S
C1220      O1233   1.258       .  A
C1220      C1392   1.473       .  S
O1221      C1231   1.259       .  A
O1221     Al1223   1.899       .  S
O1222      C1235   1.266       .  A
Al1223     O1233   1.902       .  S
Al1223     O1228   1.785       .  S
O1224      C1231   1.254       .  A
O1224     Al1232   1.855       .  S
O1225      C1234   1.252       .  A
O1225     Al1232   1.883       .  S
O1226     Al1232   1.871       .  S
O1227      C1234   1.262       .  A
O1228     Al1232   1.787       .  S
O1229      C1230   1.276       .  A
C1230      C1293   1.481       .  S
C1231      C1473   1.447       .  S
C1234      C1317   1.481       .  S
C1235      O1236   1.266       .  A
C1235      C1401   1.468       .  S
O1237      C1252   1.255       .  A
O1237     Al1245   1.855       .  S
C1238      O1248   1.254       .  A
C1238      O1239   1.278       .  A
C1238      C1701   1.492       .  S
O1239     Al1241   1.984       .  S
O1240      C1242   1.256       .  A
O1240     Al1241   1.888       .  S
Al1241     O1249   1.937       .  S
Al1241     O1251   1.978       .  S
Al1241     O1250   1.787       .  S
C1242      O1255   1.258       .  A
C1242      C1368   1.475       .  S
O1243      C1253   1.255       .  A
O1243     Al1245   1.885       .  S
O1244      C1257   1.265       .  A
Al1245     O1255   1.910       .  S
Al1245     O1250   1.788       .  S
O1246      C1253   1.252       .  A
O1246     Al1254   1.847       .  S
O1247      C1256   1.252       .  A
O1247     Al1254   1.877       .  S
O1248     Al1254   1.859       .  S
O1249      C1256   1.263       .  A
O1250     Al1254   1.795       .  S
O1251      C1252   1.276       .  A
C1252      C1305   1.502       .  S
C1253      C1593   1.436       .  S
C1256      C1281   1.480       .  S
C1257      O1258   1.266   1_655  A
C1257      C1356   1.466       .  S
O1259      C1274   1.255       .  A
O1259     Al1267   1.850       .  S
C1260      O1270   1.253       .  A
C1260      O1261   1.281       .  A
C1260      C1617   1.514       .  S
O1261     Al1263   1.996       .  S
O1262      C1264   1.257       .  A
O1262     Al1263   1.890       .  S
Al1263     O1271   1.935       .  S
Al1263     O1273   1.994       .  S
Al1263     O1272   1.781       .  S
C1264      O1277   1.257       .  A
C1264      C1332   1.472       .  S
O1265      C1275   1.255       .  A
O1265     Al1267   1.879       .  S
O1266      C1279   1.256       .  A
Al1267     O1277   1.903       .  S
Al1267     O1272   1.785       .  S
O1268      C1275   1.258       .  A
O1268     Al1276   1.865       .  S
O1269      C1278   1.256       .  A
O1269     Al1276   1.889       .  S
O1270     Al1276   1.858       .  S
O1271      C1278   1.263       .  A
O1272     Al1276   1.782       .  S
O1273      C1274   1.280       .  A
C1274      C1296   1.498       .  S
C1275      C1548   1.436       .  S
C1278      C1284   1.484       .  S
C1279      O1280   1.262       .  A
C1279      C1341   1.459       .  S
C1281      C1282   1.398       .  A
C1282      H1291   1.083       .  S
C1283      C1284   1.416   1_455  A
C1283      S1287   1.804       .  S
C1284      C1285   1.400       .  A
C1285      C1286   1.404       .  A
C1285      H1292   1.084       .  S
C1286      S1288   1.802       .  S
S1287      H1290   1.407       .  S
C1293      C1294   1.408       .  A
C1293      C1298   1.410       .  A
C1294      C1295   1.412       .  A
C1294      H1303   1.084       .  S
C1295      C1296   1.417       .  A
C1295      S1299   1.799       .  S
C1296      C1297   1.411       .  A
C1297      C1298   1.399       .  A
C1297      H1304   1.084       .  S
C1298      S1300   1.806       .  S
S1299      H1302   1.407       .  S
S1300      H1301   1.407       .  S
C1305      C1306   1.412   1_545  A
C1305      C1310   1.418       .  A
C1306      C1307   1.398       .  A
C1306      H1315   1.080       .  S
C1307      C1308   1.406       .  A
C1307      S1311   1.805       .  S
C1308      C1309   1.409       .  A
C1309      C1310   1.413   1_565  A
C1309      H1316   1.084       .  S
C1310      S1312   1.799       .  S
S1311      H1314   1.407       .  S
S1312      H1313   1.407       .  S
C1317      C1318   1.409   1_655  A
C1317      C1322   1.409       .  A
C1318      C1319   1.409       .  A
C1318      H1327   1.083       .  S
C1320      C1321   1.409       .  A
C1321      H1328   1.084       .  S
C1322      S1324   1.803       .  S
S1323      H1326   1.406       .  S
S1324      H1325   1.405       .  S
C1329      C1330   1.409       .  A
C1329      C1334   1.421       .  A
C1330      C1331   1.398       .  A
C1330      H1339   1.082       .  S
C1331      C1332   1.407       .  A
C1331      S1335   1.809       .  S
C1332      C1333   1.400       .  A
C1333      C1334   1.403       .  A
C1333      H1340   1.083       .  S
C1334      S1336   1.810       .  S
S1335      H1338   1.407       .  S
S1336      H1337   1.406       .  S
C1341      C1342   1.395       .  A
C1341      C1346   1.410       .  A
C1342      C1343   1.396       .  A
C1342      H1351   1.083       .  S
C1343      C1344   1.419       .  A
C1343      S1347   1.810       .  S
C1344      C1345   1.402       .  A
C1345      C1346   1.396       .  A
C1345      H1352   1.084       .  S
C1346      S1348   1.800       .  S
S1347      H1350   1.407       .  S
S1348      H1349   1.405       .  S
C1353      C1354   1.409       .  A
C1353      C1358   1.413   1_565  A
C1354      C1355   1.400   1_565  A
C1354      H1363   1.084       .  S
C1355      C1356   1.407       .  A
C1355      S1359   1.805       .  S
C1356      C1357   1.403       .  A
C1357      C1358   1.399       .  A
C1357      H1364   1.085       .  S
C1358      S1360   1.803       .  S
S1359      H1362   1.406       .  S
S1360      H1361   1.408   1_545  S
C1365      C1366   1.412       .  A
C1365      C1370   1.418   1_565  A
C1366      C1367   1.400       .  A
C1366      H1375   1.083       .  S
C1367      C1368   1.409   1_565  A
C1367      S1371   1.803       .  S
C1368      C1369   1.402       .  A
C1369      C1370   1.400       .  A
C1369      H1376   1.084       .  S
C1370      S1372   1.802       .  S
S1371      H1374   1.405   1_565  S
S1372      H1373   1.407   1_545  S
C1377      C1378   1.413       .  A
C1377      C1382   1.414       .  A
C1378      C1379   1.406       .  A
C1378      H1387   1.084       .  S
C1379      C1380   1.414       .  A
C1379      S1383   1.800       .  S
C1380      C1381   1.413       .  A
C1381      C1382   1.407       .  A
C1381      H1388   1.084       .  S
C1382      S1384   1.799       .  S
S1383      H1386   1.407       .  S
S1384      H1385   1.407       .  S
C1389      C1390   1.406       .  A
C1389      C1394   1.420       .  A
C1390      C1391   1.393       .  A
C1390      H1399   1.084       .  S
C1391      C1392   1.411       .  A
C1391      S1395   1.803       .  S
C1392      C1393   1.401       .  A
C1393      C1394   1.403       .  A
C1393      H1400   1.083       .  S
C1394      S1396   1.810       .  S
S1395      H1398   1.406       .  S
S1396      H1397   1.406       .  S
C1401      C1402   1.405       .  A
C1401      C1406   1.408       .  A
C1402      C1403   1.402       .  A
C1402      H1411   1.084       .  S
C1403      C1404   1.414       .  A
C1403      S1407   1.803       .  S
C1404      C1405   1.407       .  A
C1405      C1406   1.394       .  A
C1405      H1412   1.084       .  S
C1406      S1408   1.803       .  S
S1407      H1410   1.408       .  S
S1408      H1409   1.404       .  S
C1413      C1414   1.417       .  A
C1413      C1418   1.409       .  A
C1414      C1415   1.410       .  A
C1414      H1423   1.084       .  S
C1415      C1416   1.410       .  A
C1415      S1419   1.800       .  S
C1416      C1417   1.416       .  A
C1417      C1418   1.409       .  A
C1417      H1424   1.083       .  S
C1418      S1420   1.798       .  S
S1419      H1422   1.405       .  S
S1420      H1421   1.406       .  S
C1425      C1426   1.400       .  A
C1425      C1430   1.408       .  A
C1426      C1427   1.396       .  A
C1426      H1435   1.084       .  S
C1427      C1428   1.419   1_565  A
C1427      S1431   1.800       .  S
C1428      C1429   1.408       .  A
C1429      C1430   1.391   1_545  A
C1429      H1436   1.084       .  S
C1430      S1432   1.804   1_565  S
S1431      H1434   1.407       .  S
S1432      H1433   1.407   1_545  S
C1437      C1438   1.409   1_545  A
C1437      C1442   1.422       .  A
C1438      C1439   1.395       .  A
C1438      H1447   1.083       .  S
C1439      C1440   1.408       .  A
C1439      S1443   1.803       .  S
C1440      C1441   1.399   1_565  A
C1441      C1442   1.397       .  A
C1441      H1448   1.084       .  S
C1442      S1444   1.803       .  S
S1443      H1446   1.405       .  S
S1444      H1445   1.403       .  S
C1449      C1450   1.417   1_545  A
C1449      C1454   1.409       .  A
C1450      C1451   1.408       .  A
C1450      H1459   1.084       .  S
C1451      C1452   1.409       .  A
C1451      S1455   1.803       .  S
C1452      C1453   1.415   1_565  A
C1453      C1454   1.408       .  A
C1453      H1460   1.084       .  S
C1454      S1456   1.798       .  S
S1455      H1458   1.405       .  S
S1456      H1457   1.406       .  S
C1461      C1462   1.401       .  A
C1461      C1466   1.422       .  A
C1462      C1463   1.407       .  A
C1462      H1471   1.084       .  S
C1463      C1464   1.423       .  A
C1463      S1467   1.803       .  S
C1464      C1465   1.402       .  A
C1465      C1466   1.407       .  A
C1465      H1472   1.084       .  S
C1466      S1468   1.804       .  S
S1467      H1470   1.408       .  S
S1468      H1469   1.408       .  S
C1473      C1474   1.399       .  A
C1474      C1475   1.388       .  A
C1474      H1483   1.083       .  S
C1475      S1479   1.812       .  S
C1476      C1477   1.408       .  A
C1477      C1478   1.394       .  A
C1477      H1484   1.083       .  S
C1478      S1480   1.807       .  S
S1479      H1482   1.408       .  S
S1480      H1481   1.406       .  S
C1485      C1486   1.415       .  A
C1485      C1490   1.418       .  A
C1486      C1487   1.416       .  A
C1486      H1495   1.083       .  S
C1487      C1488   1.420       .  A
C1487      S1491   1.800       .  S
C1488      C1489   1.417       .  A
C1489      C1490   1.422       .  A
C1489      H1496   1.082       .  S
C1490      S1492   1.807       .  S
S1491      H1494   1.407       .  S
S1492      H1493   1.406       .  S
C1497      C1498   1.414       .  A
C1497      C1502   1.413       .  A
C1498      H1507   1.085       .  S
C1499      C1500   1.413       .  A
C1499      S1503   1.799       .  S
C1500      C1501   1.413   1_655  A
C1501      H1508   1.082       .  S
C1502      S1504   1.800       .  S
S1503      H1506   1.407       .  S
S1504      H1505   1.407       .  S
C1509      C1514   1.412       .  A
C1510      C1511   1.387       .  A
C1510      H1519   1.084       .  S
C1511      C1512   1.401   1_565  A
C1511      S1515   1.803       .  S
C1513      C1514   1.392   1_455  A
C1513      H1520   1.085       .  S
C1514      S1516   1.802       .  S
S1515      H1518   1.408       .  S
S1516      H1517   1.405       .  S
C1521      C1522   1.413       .  A
C1521      C1526   1.416       .  A
C1522      C1523   1.425       .  A
C1522      H1531   1.083       .  S
C1523      C1524   1.420       .  A
C1523      S1527   1.803       .  S
C1524      C1525   1.401       .  A
C1525      C1526   1.408       .  A
C1525      H1532   1.083       .  S
C1526      S1528   1.799       .  S
S1527      H1530   1.405       .  S
S1528      H1529   1.406       .  S
C1533      C1534   1.416   1_554  A
C1533      C1538   1.420       .  A
C1534      C1535   1.417       .  A
C1534      H1543   1.083       .  S
C1535      C1536   1.419       .  A
C1535      S1539   1.801       .  S
C1536      C1537   1.415       .  A
C1537      C1538   1.419   1_556  A
C1537      H1544   1.082       .  S
C1538      S1540   1.807       .  S
S1539      H1542   1.407       .  S
S1540      H1541   1.407       .  S
C1545      C1550   1.411   1_554  A
C1546      C1547   1.384       .  A
C1546      H1555   1.084       .  S
C1547      C1548   1.400   1_554  A
C1547      S1551   1.804       .  S
C1549      C1550   1.393       .  A
C1549      H1556   1.085       .  S
C1550      S1552   1.802       .  S
S1551      H1554   1.408   1_554  S
S1552      H1553   1.407       .  S
C1557      C1558   1.417       .  A
C1557      C1562   1.409       .  A
C1558      C1559   1.410       .  A
C1558      H1567   1.084       .  S
C1559      C1560   1.410       .  A
C1559      S1563   1.798       .  S
C1560      C1561   1.418       .  A
C1561      C1562   1.410       .  A
C1561      H1568   1.084       .  S
C1562      S1564   1.803       .  S
S1563      H1566   1.405       .  S
S1564      H1565   1.405       .  S
C1569      C1570   1.420   1_565  A
C1569      C1574   1.408       .  A
C1570      C1571   1.406       .  A
C1570      H1579   1.084       .  S
C1571      C1572   1.408       .  A
C1571      S1575   1.799       .  S
C1572      C1573   1.420   1_545  A
C1573      C1574   1.410       .  A
C1573      H1580   1.084       .  S
S1575      H1578   1.407       .  S
S1576      H1577   1.406       .  S
C1581      C1582   1.409       .  A
C1581      C1586   1.434   1_655  A
C1582      C1583   1.413       .  A
C1582      H1591   1.083       .  S
C1584      C1585   1.395       .  A
C1585      H1592   1.085       .  S
C1586      S1588   1.813       .  S
S1587      H1590   1.406       .  S
S1588      H1589   1.407       .  S
C1593      C1594   1.400   1_545  A
C1594      C1595   1.395       .  A
C1594      H1603   1.084       .  S
C1595      S1599   1.808       .  S
C1596      C1597   1.406   1_565  A
C1597      C1598   1.387   1_655  A
C1597      H1604   1.081       .  S
C1598      S1600   1.806       .  S
S1599      H1602   1.406       .  S
S1600      H1601   1.406       .  S
C1605      C1606   1.413       .  A
C1605      C1610   1.417       .  A
C1606      C1607   1.418   1_556  A
C1606      H1615   1.082       .  S
C1607      C1608   1.421       .  A
C1607      S1611   1.808       .  S
C1608      C1609   1.416   1_554  A
C1609      C1610   1.416       .  A
C1609      H1616   1.083       .  S
C1610      S1612   1.801       .  S
S1611      H1614   1.407       .  S
S1612      H1613   1.407       .  S
C1617      C1618   1.419       .  A
C1617      C1622   1.411       .  A
C1618      C1619   1.417   1_556  A
C1618      H1627   1.082       .  S
C1619      C1620   1.413       .  A
C1619      S1623   1.806       .  S
C1620      C1621   1.419   1_554  A
C1621      C1622   1.413       .  A
C1621      H1628   1.082       .  S
C1622      S1624   1.807       .  S
S1623      H1626   1.406       .  S
S1624      H1625   1.407       .  S
C1629      C1630   1.405   1_556  A
C1629      C1634   1.422       .  A
C1630      C1631   1.393       .  A
C1630      H1639   1.083       .  S
C1631      C1632   1.405       .  A
C1631      S1635   1.808       .  S
C1632      C1633   1.394   1_554  A
C1633      C1634   1.385       .  A
C1633      H1640   1.086       .  S
C1634      S1636   1.804       .  S
S1635      H1638   1.407       .  S
S1636      H1637   1.408       .  S
C1641      C1642   1.400       .  A
C1641      C1646   1.409       .  A
C1642      C1643   1.399       .  A
C1642      H1651   1.084       .  S
C1643      C1644   1.420       .  A
C1643      S1647   1.804       .  S
C1644      C1645   1.409       .  A
C1645      C1646   1.399       .  A
C1645      H1652   1.083       .  S
C1646      S1648   1.803       .  S
S1647      H1650   1.407       .  S
S1648      H1649   1.407       .  S
C1653      C1654   1.397       .  A
C1653      C1658   1.414       .  A
C1654      C1655   1.393       .  A
C1654      H1663   1.084       .  S
C1655      C1656   1.424       .  A
C1655      S1659   1.804       .  S
C1656      C1657   1.407       .  A
C1657      C1658   1.404       .  A
C1657      H1664   1.083       .  S
C1658      S1660   1.800       .  S
S1659      H1662   1.407       .  S
S1660      H1661   1.407       .  S
C1665      C1666   1.405   1_565  A
C1665      C1670   1.419       .  A
C1666      C1667   1.398       .  A
C1666      H1675   1.082       .  S
C1667      C1668   1.411       .  A
C1667      S1671   1.809       .  S
C1668      C1669   1.397       .  A
C1669      C1670   1.393   1_545  A
C1669      H1676   1.085   1_545  S
C1670      S1672   1.801       .  S
S1671      H1674   1.406       .  S
S1672      H1673   1.408       .  S
C1677      C1678   1.398   1_565  A
C1677      C1682   1.406       .  A
C1678      C1679   1.395       .  A
C1678      H1687   1.084       .  S
C1679      C1680   1.422       .  A
C1679      S1683   1.805       .  S
C1680      C1681   1.406   1_545  A
C1681      C1682   1.395       .  A
C1681      H1688   1.084       .  S
C1682      S1684   1.799       .  S
S1683      H1686   1.407       .  S
S1684      H1685   1.406       .  S
C1689      C1690   1.408       .  A
C1689      C1694   1.410       .  A
C1690      C1691   1.406       .  A
C1690      H1699   1.084       .  S
C1691      C1692   1.410       .  A
C1691      S1695   1.800       .  S
C1692      C1693   1.408       .  A
C1693      C1694   1.404       .  A
C1693      H1700   1.084       .  S
C1694      S1696   1.802       .  S
S1695      H1698   1.405       .  S
S1696      H1697   1.405       .  S
C1701      C1702   1.397       .  A
C1701      C1706   1.420       .  A
C1702      C1703   1.393   1_556  A
C1702      H1711   1.085       .  S
C1703      C1704   1.420       .  A
C1703      S1707   1.799       .  S
C1704      C1705   1.412       .  A
C1705      C1706   1.425   1_554  A
C1705      H1712   1.083       .  S
C1706      S1708   1.801       .  S
S1707      H1710   1.394       .  S
S1708      H1709   1.405       .  S
C1713      C1714   1.407   1_556  A
C1713      C1718   1.421   1_565  A
C1714      C1715   1.394       .  A
C1714      H1723   1.084       .  S
C1715      C1716   1.406       .  A
C1715      S1719   1.801       .  S
C1716      C1717   1.396   1_564  A
C1717      C1718   1.387       .  A
C1717      H1724   1.085       .  S
C1718      S1720   1.804       .  S
S1719      H1722   1.406       .  S
S1720      H1721   1.408       .  S
C1725      C1726   1.397       .  A
C1725      C1730   1.421       .  A
C1726      C1727   1.394       .  A
C1726      H1735   1.086       .  S
C1727      C1728   1.417       .  A
C1727      S1731   1.798       .  S
C1728      C1729   1.410       .  A
C1729      C1730   1.423       .  A
C1729      H1736   1.083       .  S
C1730      S1732   1.802       .  S
S1731      H1734   1.402       .  S
S1732      H1733   1.405       .  S
C1737      C1738   1.402       .  A
C1737      C1742   1.399       .  A
C1738      C1739   1.396       .  A
C1738      H1747   1.084       .  S
C1739      C1740   1.406       .  A
C1739      S1743   1.805       .  S
C1740      C1741   1.406       .  A
C1741      C1742   1.387       .  A
C1741      H1748   1.082       .  S
C1742      S1744   1.806       .  S
S1743      H1746   1.407       .  S
S1744      H1745   1.407       .  S
C1749      C1750   1.405       .  A
C1749      C1754   1.415       .  A
C1750      C1751   1.405       .  A
C1750      H1759   1.082       .  S
C1751      C1752   1.415       .  A
C1751      S1755   1.809       .  S
C1752      C1753   1.405       .  A
C1753      C1754   1.399       .  A
C1753      H1760   1.082       .  S
C1754      S1756   1.810       .  S
S1755      H1758   1.406       .  S
S1756      H1757   1.407       .  S
C1761      C1762   1.406       .  A
C1761      C1766   1.420       .  A
C1762      C1763   1.401       .  A
C1762      H1771   1.084       .  S
C1763      C1764   1.412       .  A
C1763      S1767   1.800       .  S
C1764      C1765   1.397       .  A
C1765      C1766   1.393       .  A
C1765      H1772   1.085       .  S
C1766      S1768   1.799       .  S
S1767      H1770   1.406       .  S
S1768      H1769   1.406       .  S
C1773      C1774   1.408       .  A
C1773      C1778   1.420       .  A
C1774      C1775   1.401       .  A
C1774      H1783   1.084       .  S
C1775      C1776   1.414       .  A
C1775      S1779   1.806       .  S
C1776      C1777   1.407       .  A
C1777      C1778   1.414       .  A
C1777      H1784   1.084       .  S
C1778      S1780   1.798       .  S
S1779      H1782   1.407       .  S
S1780      H1781   1.406       .  S
C1785      C1786   1.396       .  A
C1785      C1790   1.412       .  A
C1786      C1787   1.392   1_565  A
C1786      H1795   1.082       .  S
C1787      C1788   1.420       .  A
C1787      S1791   1.803       .  S
C1788      C1789   1.405   1_545  A
C1789      C1790   1.400       .  A
C1789      H1796   1.084       .  S
C1790      S1792   1.800       .  S
S1791      H1794   1.406       .  S
S1792      H1793   1.407       .  S
C1797      C1798   1.402   1_565  A
C1797      C1802   1.412       .  A
C1798      C1799   1.398       .  A
C1798      H1807   1.084       .  S
C1799      C1800   1.417       .  A
C1799      S1803   1.799       .  S
C1800      C1801   1.405   1_545  A
C1801      C1802   1.390       .  A
C1801      H1808   1.084       .  S
C1802      S1804   1.804       .  S
S1803      H1806   1.399       .  S
S1804      H1805   1.407       .  S
C1809      C1810   1.407       .  A
C1809      C1814   1.417       .  A
C1810      C1811   1.414   1_565  A
C1810      H1819   1.084       .  S
C1811      C1812   1.419       .  A
C1811      S1815   1.801       .  S
C1812      C1813   1.404       .  A
C1813      C1814   1.400   1_545  A
C1813      H1820   1.085       .  S
C1814      S1816   1.805       .  S
S1815      H1818   1.404       .  S
S1816      H1817   1.407       .  S
C1821      C1822   1.407       .  A
C1821      C1826   1.410       .  A
C1822      C1823   1.404       .  A
C1822      H1831   1.084       .  S
C1823      C1824   1.411       .  A
C1823      S1827   1.801       .  S
C1824      C1825   1.408       .  A
C1825      C1826   1.403       .  A
C1825      H1832   1.084       .  S
C1826      S1828   1.802       .  S
S1827      H1830   1.404       .  S
S1828      H1829   1.404       .  S
C1833      C1834   1.417       .  A
C1833      C1838   1.414       .  A
C1834      C1835   1.414       .  A
C1834      H1843   1.082       .  S
C1835      C1836   1.414       .  A
C1835      S1839   1.808       .  S
C1836      C1837   1.416       .  A
C1837      C1838   1.411       .  A
C1837      H1844   1.083       .  S
C1838      S1840   1.799       .  S
S1839      H1842   1.406       .  S
S1840      H1841   1.407       .  S
C1845      C1846   1.395   1_545  A
C1845      C1850   1.403       .  A
C1846      C1847   1.386       .  A
C1846      H1855   1.086       .  S
C1847      C1848   1.421   1_565  A
C1847      S1851   1.805       .  S
C1848      C1849   1.406       .  A
C1849      C1850   1.392       .  A
C1849      H1856   1.083       .  S
C1850      S1852   1.807       .  S
S1851      H1854   1.408       .  S
S1852      H1853   1.407       .  S
