geometry optimzed in LAMMPS
_audit_creation_date              2020-12-01 
_audit_creation_method            'lammps2cif' 
_symmetry_space_group_name_H-M    'P1' 
_symmetry_Int_Tables_number       1 
_symmetry_cell_setting            triclinic 
loop_ 
_symmetry_equiv_pos_as_xyz 
  x,y,z 
_cell_length_a                    35.4046288 
_cell_length_b                    35.39070893918394 
_cell_length_c                    35.38803595813354 
_cell_angle_alpha                 89.8856746144845 
_cell_angle_beta                  90.04542991947179 
_cell_angle_gamma                 89.99347943701127 
loop_ 
_atom_site_label 
_atom_site_type_symbol 
_atom_site_fract_x 
_atom_site_fract_y 
_atom_site_fract_z 
_atom_site_charge 
O1          O  0.27506281  0.33790873  0.26619345    -0.77600
C2          C  0.25290452  0.25137278  0.34772007     0.83400
O3          O  0.34014239  0.22749123  0.22177617    -0.78800
O4          O  0.22715231  0.16315483  0.26483528    -0.80200
O5          O  0.16350962  0.27449086  0.21989671    -0.80000
O6          O  0.23110392  0.33997255  0.22114345    -0.78700
Zn7        Zn  0.28380617  0.28296799  0.27501225     1.55700
O8          O  0.16311916  0.23010241  0.26470890    -0.80100
Cd9        Cd  0.21994671  0.28410074  0.21071614     1.59700
Cd10       Cd  0.28374883  0.21862529  0.21105524     1.59600
O11         O  0.22906333  0.27294731  0.15465822    -0.80000
O12         O  0.25203332  0.25170217  0.24335263    -1.90600
Cd13       Cd  0.21901478  0.21957869  0.27525743     1.59900
O14         O  0.27336242  0.22810197  0.15481111    -0.80000
O15         O  0.22975769  0.22938449  0.33121807    -0.78700
C16         C  0.35617043  0.25061058  0.24410203     0.83900
C17         C  0.25349860  0.35624834  0.24410804     0.83500
O18         O  0.27501247  0.27309944  0.32965244    -0.77600
C19         C  0.14605816  0.25202161  0.24186484     0.84300
O20         O  0.33794383  0.27303543  0.26521295    -0.77700
C21         C  0.25059902  0.24990668  0.13750423     0.84500
C22         C  0.24872355  0.14573460  0.24204735     0.84800
O23         O  0.27169319  0.16280297  0.22032472    -0.80100
O24         O  0.97878023  0.16006518  0.21742533    -0.77600
C25         C  0.89720343  0.25059182  0.24204821     0.83400
O26         O  0.02227262  0.26912086  0.14907793    -0.78800
O27         O  0.98147383  0.33784488  0.26429648    -0.80200
O28         O  0.02250099  0.22477478  0.32920086    -0.80000
O29         O  0.02385448  0.15812908  0.26124183    -0.78700
Zn30       Zn  0.96836728  0.21590253  0.20789686     1.55700
O31         O  0.98041006  0.27153063  0.32966878    -0.80100
Cd32       Cd  0.03238003  0.21513211  0.27219926     1.59700
Cd33       Cd  0.03138245  0.28122687  0.20570464     1.59600
O34         O  0.08797066  0.22779198  0.26241583    -0.80000
O35         O  0.00032737  0.24787420  0.23917081    -1.90600
Cd36       Cd  0.97065667  0.28155177  0.27327490     1.59900
O37         O  0.08760786  0.27257269  0.21767147    -0.80000
O38         O  0.91466389  0.27310766  0.26379251    -0.78700
C39         C  0.99960280  0.24631414  0.13286230     0.83900
C40         C  0.00125729  0.14146211  0.23868327     0.83500
O41         O  0.91390660  0.22754457  0.22001390    -0.77600
C42         C  0.00160840  0.24816974  0.34685910     0.84300
O43         O  0.97735235  0.22519268  0.15181694    -0.77700
C44         C  0.10495701  0.25085220  0.24061186     0.84500
C45         C  0.00089126  0.35534130  0.23970597     0.84800
O46         O  0.02026775  0.33825325  0.21468349    -0.80100
O47         O  0.97851086  0.33899125  0.47273192    -0.77600
C48         C  0.00194985  0.24826471  0.38830701     0.83400
O49         O  0.91230079  0.22733244  0.51461114    -0.78800
O50         O  0.02293229  0.15727419  0.47139681    -0.80200
O51         O  0.08906837  0.27261830  0.51496236    -0.80000
O52         O  0.02480204  0.34022512  0.51459540    -0.78700
Zn53       Zn  0.96991890  0.28272417  0.46137337     1.55700
O54         O  0.08965824  0.22662441  0.47178365    -0.80100
Cd55       Cd  0.03279831  0.28271944  0.52510136     1.59700
Cd56       Cd  0.96835351  0.21505447  0.52449501     1.59600
O57         O  0.02161445  0.27171089  0.58150987    -0.80000
O58         O  0.00063617  0.24919153  0.49272121    -1.90600
Cd59       Cd  0.03325314  0.21483619  0.46172668     1.59900
O60         O  0.97865733  0.22534920  0.58102666    -0.80000
O61         O  0.02330161  0.22482506  0.40536043    -0.78700
C62         C  0.89628823  0.25134658  0.49308420     0.83900
C63         C  0.00122462  0.35761062  0.49361479     0.83500
O64         O  0.98094533  0.27164853  0.40604316    -0.77600
C65         C  0.10665616  0.25015416  0.49312900     0.84300
O66         O  0.91470808  0.27342162  0.47145243    -0.77700
C67         C  0.99999679  0.24842189  0.59859752     0.84500
C68         C  0.99984589  0.13948138  0.49270436     0.84800
O69         O  0.97698579  0.15723173  0.51421048    -0.80100
O70         O  0.08696344  0.22564055  0.76840822    -0.77600
C71         C  0.99962335  0.24653319  0.85404766     0.83400
O72         O  0.98016954  0.15791618  0.72334383    -0.78800
O73         O  0.91293496  0.27065701  0.76860209    -0.80200
O74         O  0.02028873  0.33672069  0.72283733    -0.80000
O75         O  0.08694941  0.27075669  0.72399418    -0.78700
Zn76       Zn  0.03202296  0.21512960  0.78003199     1.55700
O77         O  0.97915945  0.33690577  0.77056634    -0.80100
Cd78       Cd  0.03108163  0.28031769  0.71404476     1.59700
Cd79       Cd  0.96912577  0.21453375  0.71420811     1.59600
O80         O  0.02171142  0.27048984  0.65754038    -0.80000
O81         O  0.00068378  0.24697427  0.74778949    -1.90600
Cd82       Cd  0.96881684  0.28017301  0.78039186     1.59900
O83         O  0.97803910  0.22527417  0.65737412    -0.80000
O84         O  0.97736340  0.26929707  0.83720248    -0.78700
C85         C  0.00066928  0.14107021  0.74771047     0.83900
C86         C  0.10408022  0.24811294  0.74599391     0.83500
O87         O  0.02213626  0.22514279  0.83579251    -0.77600
C88         C  0.99952653  0.35406284  0.74638425     0.84300
O89         O  0.02122444  0.15944165  0.77092301    -0.77700
C90         C  0.99983889  0.24805406  0.64002984     0.84500
C91         C  0.89584030  0.24817699  0.74636524     0.84800
O92         O  0.91310246  0.22503219  0.72493025    -0.80100
O93         O  0.91273491  0.48073027  0.22277270    -0.77600
C94         C  0.99982737  0.50017642  0.13454537     0.83400
O95         O  0.02314723  0.41264364  0.26453105    -0.78800
O96         O  0.08950942  0.52257056  0.22055455    -0.80200
O97         O  0.98144812  0.58946734  0.26558105    -0.80000
O98         O  0.91300597  0.52450622  0.26809651    -0.78700
Zn99       Zn  0.96785609  0.47022267  0.21016360     1.55700
O100        O  0.02274762  0.58866235  0.21775603    -0.80100
Cd101      Cd  0.96982134  0.53342813  0.27736563     1.59700
Cd102      Cd  0.03258701  0.46883266  0.27707114     1.59600
O103        O  0.97927983  0.52278097  0.33491160    -0.80000
O104        O  0.00041124  0.50068684  0.24280842    -1.90600
Cd105      Cd  0.03314584  0.53206924  0.20856357     1.59900
O106        O  0.02258412  0.47738105  0.33487520    -0.80000
O107        O  0.02399210  0.52112248  0.15117784    -0.78700
C108        C  0.00123798  0.39650590  0.24096624     0.83900
C109        C  0.89542651  0.50248903  0.24575180     0.83500
O110        O  0.97648394  0.48020929  0.15351982    -0.77600
C111        C  0.00213378  0.60635231  0.24132720     0.84300
O112        O  0.97907492  0.41485041  0.21923522    -0.77700
C113        C  0.00083805  0.49992185  0.35271447     0.84500
C114        C  0.10639238  0.50192508  0.24477868     0.84800
O115        O  0.08894347  0.48052546  0.26785302    -0.80100
O116        O  0.97880660  0.77640784  0.15180685    -0.77600
C117        C  0.89785102  0.75318193  0.24057363     0.83400
O118        O  0.01964452  0.84368704  0.26596555    -0.78800
O119        O  0.97851117  0.72957016  0.32980437    -0.80200
O120        O  0.02327638  0.66513692  0.21734980    -0.80000
O121        O  0.02382618  0.73256327  0.15028446    -0.78700
Zn122      Zn  0.96977561  0.78672185  0.20764749     1.55700
O123        O  0.98046007  0.66497822  0.26343683    -0.80100
Cd124      Cd  0.03290385  0.72206933  0.20739173     1.59700
Cd125      Cd  0.03156891  0.78703426  0.27466853     1.59600
O126        O  0.08847854  0.73217328  0.21996852    -0.80000
O127        O  0.00078737  0.75480611  0.24010009    -1.90600
Cd128      Cd  0.97005540  0.72098021  0.27300792     1.59900
O129        O  0.08813148  0.77654876  0.26497961    -0.80000
O130        O  0.91461081  0.73016924  0.26238983    -0.78700
C131        C  0.99974619  0.86069187  0.24117160     0.83900
C132        C  0.00098522  0.75480243  0.13342400     0.83500
O133        O  0.91515064  0.77615669  0.21890588    -0.77600
C134        C  0.00202194  0.64769110  0.24060278     0.84300
O135        O  0.98021339  0.84239778  0.21704255    -0.77700
C136        C  0.10549667  0.75387241  0.24305139     0.84500
C137        C  0.99973829  0.75217202  0.34778903     0.84800
O138        O  0.02133059  0.77565338  0.33119728    -0.80100
O139        O  0.91212752  0.77142162  0.47170169    -0.77600
C140        C  0.00000299  0.85850921  0.49311743     0.83400
O141        O  0.02015729  0.72604081  0.40527634    -0.78800
O142        O  0.08821077  0.77088436  0.51530421    -0.80200
O143        O  0.97788198  0.72689357  0.58186794    -0.80000
O144        O  0.91168347  0.72499046  0.51460257    -0.78700
Zn145      Zn  0.96748038  0.78353935  0.46215483     1.55700
O146        O  0.01972504  0.77436884  0.58129077    -0.80100
Cd147      Cd  0.96775464  0.71567928  0.52516956     1.59700
Cd148      Cd  0.03123010  0.71588646  0.46162116     1.59600
O149        O  0.97616565  0.65834900  0.51384159    -0.80000
O150        O  0.99907584  0.75027692  0.49304115    -1.90600
Cd151      Cd  0.03182501  0.78361498  0.52492179     1.59900
O152        O  0.02381336  0.65856880  0.47344430    -0.80000
O153        O  0.02353324  0.84124306  0.51434816    -0.78700
C154        C  0.99962422  0.75070367  0.38890844     0.83900
C155        C  0.89468271  0.74779356  0.49266215     0.83500
O156        O  0.97677364  0.84011029  0.47249042    -0.77600
C157        C  0.99844887  0.75117791  0.59878152     0.84300
O158        O  0.97905169  0.77403487  0.40701239    -0.77700
C159        C  0.00008742  0.64056535  0.49368685     0.84500
C160        C  0.10516853  0.74825173  0.49296402     0.84800
O161        O  0.08750473  0.72640838  0.47059843    -0.80100
O162        O  0.02201551  0.77597599  0.83511077    -0.77600
C163        C  0.10335571  0.75295808  0.74487037     0.83400
O164        O  0.97844836  0.84386402  0.72344519    -0.78800
O165        O  0.01930563  0.72893631  0.65762510    -0.80200
O166        O  0.97793154  0.66384478  0.77096664    -0.80000
O167        O  0.97701015  0.73212721  0.83747076    -0.78700
Zn168      Zn  0.03132080  0.78597156  0.77927828     1.55700
O169        O  0.02000208  0.66395790  0.72422001    -0.80100
Cd170      Cd  0.96804277  0.72084161  0.78054707     1.59700
Cd171      Cd  0.96810569  0.78683988  0.71375471     1.59600
O172        O  0.91221526  0.72972803  0.76801992    -0.80000
O173        O  0.99966960  0.75410489  0.74749411    -1.90600
Cd174      Cd  0.02991324  0.72035510  0.71414839     1.59900
O175        O  0.91206875  0.77489932  0.72353987    -0.80000
O176        O  0.08579305  0.73047302  0.72308933    -0.78700
C177        C  0.99974128  0.86043665  0.74734478     0.83900
C178        C  0.99987452  0.75459698  0.85390553     0.83500
O179        O  0.08636337  0.77545961  0.76733161    -0.77600
C180        C  0.99874293  0.64647378  0.74733023     0.84300
O181        O  0.02023054  0.84160439  0.77027730    -0.77700
C182        C  0.89513946  0.75153494  0.74506205     0.84500
C183        C  0.99831873  0.75211400  0.63996347     0.84800
O184        O  0.97774467  0.77624019  0.65689183    -0.80100
O185        O  0.97785733  0.47688891  0.65336481    -0.77600
C186        C  0.99956090  0.39517186  0.74588261     0.83400
O187        O  0.90914068  0.51997885  0.76538892    -0.78800
O188        O  0.02272974  0.47923372  0.83577042    -0.80200
O189        O  0.08649824  0.52216509  0.71993820    -0.80000
O190        O  0.02107201  0.52225647  0.65242030    -0.78700
Zn191      Zn  0.96753907  0.46733404  0.71004091     1.55700
O192        O  0.08759430  0.47879471  0.76587099    -0.80100
Cd193      Cd  0.02986565  0.53205619  0.71013295     1.59700
Cd194      Cd  0.96541327  0.53034008  0.77809758     1.59600
O195        O  0.01921902  0.58818091  0.72238683    -0.80000
O196        O  0.99801160  0.49919290  0.74366843    -1.90600
Cd197      Cd  0.03133997  0.46880376  0.77818560     1.59900
O198        O  0.97652657  0.58719985  0.76898532    -0.80000
O199        O  0.02066754  0.41236780  0.76935527    -0.78700
C200        C  0.89295380  0.49827139  0.74158629     0.83900
C201        C  0.99953556  0.49918947  0.63497938     0.83500
O202        O  0.97882014  0.41242252  0.72191775    -0.77600
C203        C  0.10438062  0.50039470  0.74239155     0.84300
O204        O  0.91167135  0.47697741  0.71934010    -0.77700
C205        C  0.99813962  0.60502013  0.74626618     0.84500
C206        C  0.99868198  0.49923709  0.85365198     0.84800
O207        O  0.97440801  0.51934771  0.83596795    -0.80100
O208        O  0.83313489  0.51899450  0.76271384    -0.77600
C209        C  0.74621069  0.60303264  0.74204138     0.83400
O210        O  0.72277207  0.47736331  0.83068507    -0.78800
O211        O  0.65503736  0.52172193  0.71983871    -0.80200
O212        O  0.76531157  0.47731633  0.65002745    -0.80000
O213        O  0.83456099  0.47681724  0.71618729    -0.78700
Zn214      Zn  0.77810440  0.52962374  0.77281861     1.55700
O215        O  0.72089974  0.52201103  0.65087468    -0.80100
Cd216      Cd  0.77724836  0.46772263  0.70679176     1.59700
Cd217      Cd  0.71250992  0.46768021  0.77412629     1.59600
O218        O  0.76712241  0.41186566  0.71841239    -0.80000
O219        O  0.74523669  0.49952161  0.74078093    -1.90600
Cd220      Cd  0.71167963  0.53146462  0.70831099     1.59900
O221        O  0.72389719  0.41174508  0.76460070    -0.80000
O222        O  0.72265183  0.58735526  0.71984983    -0.78700
C223        C  0.74646685  0.49888296  0.84698902     0.83900
C224        C  0.85138073  0.49795818  0.73998793     0.83500
O225        O  0.76870707  0.58445286  0.76305638    -0.77600
C226        C  0.74269312  0.49961617  0.63291450     0.84300
O227        O  0.76893708  0.51990115  0.82832594    -0.77700
C228        C  0.74603531  0.39479773  0.74198961     0.84500
C229        C  0.63793572  0.49971615  0.74270482     0.84800
O230        O  0.65567661  0.47742550  0.76477134    -0.80100
O231        O  0.72716624  0.41296189  0.97259410    -0.77600
C232        C  0.63996308  0.50052948  0.99271911     0.83400
O233        O  0.77207385  0.52075515  0.90458609    -0.78800
O234        O  0.72832968  0.58919767  0.01306171    -0.80200
O235        O  0.77000423  0.48030406  0.08244046    -0.80000
O236        O  0.77240170  0.41237106  0.01662679    -0.78700
Zn237      Zn  0.71526208  0.46797028  0.96246452     1.55700
O238        O  0.72389745  0.52346765  0.08088247    -0.80100
Cd239      Cd  0.78236841  0.46886691  0.02655953     1.59700
Cd240      Cd  0.78389615  0.53072921  0.96082944     1.59600
O241        O  0.84028866  0.47803814  0.01771744    -0.80000
O242        O  0.74866957  0.49977588  0.99300514    -1.90600
Cd243      Cd  0.71495185  0.53324949  0.02391016     1.59900
O244        O  0.84131216  0.51911807  0.97013425    -0.80000
O245        O  0.65723195  0.52451482  0.01340059    -0.78700
C246        C  0.74798862  0.49941522  0.88843479     0.83900
C247        C  0.74998956  0.39528825  0.99423611     0.83500
O248        O  0.65845082  0.47692825  0.97263093    -0.77600
C249        C  0.74653006  0.50204333  0.09898591     0.84300
O250        O  0.72525091  0.47850819  0.90707138    -0.77700
C251        C  0.85856409  0.49826223  0.99404838     0.84500
C252        C  0.75266983  0.60579128  0.99224163     0.84800
O253        O  0.77557084  0.58770926  0.97116034    -0.80100
O254        O  0.77336642  0.22549871  0.90699231    -0.77600
C255        C  0.85854444  0.24483035  0.99237202     0.83400
O256        O  0.72940654  0.15731348  0.01754754    -0.78800
O257        O  0.77652006  0.27042229  0.07946351    -0.80200
O258        O  0.72770000  0.33649080  0.97194613    -0.80000
O259        O  0.72790228  0.26952809  0.90658757    -0.78700
Zn260      Zn  0.78356200  0.21333917  0.96191137     1.55700
O261        O  0.77444318  0.33650117  0.01404795    -0.80100
Cd262      Cd  0.71843287  0.27976236  0.96229599     1.59700
Cd263      Cd  0.71930303  0.21444620  0.02552762     1.59600
O264        O  0.66204562  0.27016345  0.97252307    -0.80000
O265        O  0.75219194  0.24628396  0.99269342    -1.90600
Cd266      Cd  0.78567733  0.28001910  0.02294403     1.59900
O267        O  0.66227503  0.22460407  0.01604065    -0.80000
O268        O  0.84200560  0.27096091  0.01066400    -0.78700
C269        C  0.75053561  0.14004508  0.99410891     0.83900
C270        C  0.75062794  0.24753683  0.88970164     0.83500
O271        O  0.83957659  0.22037180  0.97390937    -0.77600
C272        C  0.75071157  0.35389834  0.99334700     0.84300
O273        O  0.77155750  0.15793630  0.97092903    -0.77700
C274        C  0.64473531  0.24756187  0.99445438     0.84500
C275        C  0.75328338  0.24950026  0.09729155     0.84800
O276        O  0.73033172  0.22728915  0.08078315    -0.80100
O277        O  0.77623727  0.84282568  0.01603917    -0.77600
C278        C  0.75302015  0.75340701  0.09683756     0.83400
O279        O  0.84444300  0.73266133  0.97082524    -0.78800
O280        O  0.73095883  0.66488418  0.01364636    -0.80200
O281        O  0.66437083  0.77760907  0.97229052    -0.80000
O282        O  0.73194787  0.84456438  0.97131510    -0.78700
Zn283      Zn  0.78671270  0.78691544  0.02510318     1.55700
O284        O  0.66501604  0.73059476  0.01419583    -0.80100
Cd285      Cd  0.72129541  0.78765209  0.96185016     1.59700
Cd286      Cd  0.78763612  0.72155905  0.96177535     1.59600
O287        O  0.73048420  0.77545789  0.90582132    -0.80000
O288        O  0.75489832  0.75496203  0.99348301    -1.90600
Cd289      Cd  0.72151517  0.72126238  0.02393707     1.59900
O290        O  0.77533456  0.73077876  0.90586884    -0.80000
O291        O  0.73100436  0.73078443  0.07984297    -0.78700
C292        C  0.86112936  0.75511888  0.99349335     0.83900
C293        C  0.75424464  0.86126730  0.99416244     0.83500
O294        O  0.77530513  0.77583788  0.07964559    -0.77600
C295        C  0.64725975  0.75380763  0.99325689     0.84300
O296        O  0.84268630  0.77680195  0.01561562    -0.77700
C297        C  0.75217451  0.75238798  0.88882807     0.84500
C298        C  0.75403940  0.64724980  0.99256142     0.84800
O299        O  0.77787626  0.66448102  0.97177189    -0.80100
O300        O  0.47666246  0.65986690  0.97277533    -0.77600
C301        C  0.39555831  0.75194863  0.99344642     0.83400
O302        O  0.52137552  0.77285449  0.90496932    -0.78800
O303        O  0.47905867  0.84139034  0.01837695    -0.80200
O304        O  0.52326860  0.72504667  0.08211204    -0.80000
O305        O  0.52347493  0.65809501  0.01457274    -0.78700
Zn306      Zn  0.46807354  0.71664852  0.96254546     1.55700
O307        O  0.47981388  0.77088003  0.08328925    -0.80100
Cd308      Cd  0.53294542  0.71577445  0.02509222     1.59700
Cd309      Cd  0.53100825  0.78453867  0.96139714     1.59600
O310        O  0.58911438  0.72854075  0.01423772    -0.80000
O311        O  0.49981350  0.74965713  0.99367726    -1.90600
Cd312      Cd  0.46896218  0.78353369  0.02706415     1.59900
O313        O  0.58779911  0.77571755  0.97208744    -0.80000
O314        O  0.41242643  0.77430588  0.01601620    -0.78700
C315        C  0.50000836  0.74893897  0.88860749     0.83900
C316        C  0.49973292  0.64111499  0.99332544     0.83500
O317        O  0.41315124  0.72891483  0.97212426    -0.77600
C318        C  0.50169446  0.74757574  0.10007150     0.84300
O319        O  0.47883643  0.72635453  0.90711019    -0.77700
C320        C  0.60579631  0.75270775  0.99323048     0.84500
C321        C  0.49927497  0.85946357  0.99454070     0.84800
O322        O  0.51975062  0.84201384  0.97054860    -0.80100
O323        O  0.22650675  0.77374627  0.07981715    -0.77600
C324        C  0.24907622  0.85962108  0.99272534     0.83400
O325        O  0.15746539  0.72999136  0.97481040    -0.78800
O326        O  0.27015115  0.77279558  0.90543331    -0.80200
O327        O  0.33701221  0.72904918  0.01383840    -0.80000
O328        O  0.27155037  0.72934682  0.07978190    -0.78700
Zn329      Zn  0.21634394  0.78620152  0.02487285     1.55700
O330        O  0.33735536  0.77561119  0.97127462    -0.80100
Cd331      Cd  0.28072961  0.71944212  0.02383580     1.59700
Cd332      Cd  0.21372876  0.71978804  0.96298345     1.59600
O333        O  0.27127354  0.66284544  0.01375171    -0.80000
O334        O  0.24731760  0.75330487  0.99354448    -1.90600
Cd335      Cd  0.28046359  0.78538836  0.96099109     1.59900
O336        O  0.22313782  0.66292795  0.97315247    -0.80000
O337        O  0.27010394  0.84244514  0.96912163    -0.78700
C338        C  0.14115962  0.75576078  0.99385032     0.83900
C339        C  0.24914786  0.75146915  0.09693638     0.83500
O340        O  0.22842550  0.84166532  0.01617161    -0.77600
C341        C  0.35444269  0.75220770  0.99266773     0.84300
O342        O  0.16034961  0.77955722  0.01290330    -0.77700
C343        C  0.24726459  0.64557438  0.99341145     0.84500
C344        C  0.24738675  0.75051217  0.88882593     0.84800
O345        O  0.22409936  0.72934571  0.90634403    -0.80100
O346        O  0.27279903  0.52251430  0.90605887    -0.77600
C347        C  0.24738682  0.60437336  0.99351771     0.83400
O348        O  0.34156211  0.47553119  0.01208092    -0.78800
O349        O  0.22852882  0.52076578  0.08148640    -0.80200
O350        O  0.15747869  0.47858680  0.96976484    -0.80000
O351        O  0.22733481  0.47874581  0.90437928    -0.78700
Zn352      Zn  0.28284229  0.53216654  0.96169217     1.55700
O353        O  0.15742899  0.51913497  0.01762911    -0.80100
Cd354      Cd  0.21514651  0.46825081  0.96048531     1.59700
Cd355      Cd  0.28392868  0.46656034  0.02353162     1.59600
O356        O  0.22395989  0.41140540  0.97113860    -0.80000
O357        O  0.24980638  0.49975003  0.99242992    -1.90600
Cd358      Cd  0.21522627  0.53039740  0.02544829     1.59900
O359        O  0.27101545  0.41003687  0.01339772    -0.80000
O360        O  0.22370064  0.58712865  0.01442461    -0.78700
C361        C  0.35845613  0.49953204  0.99100589     0.83900
C362        C  0.25061826  0.50074893  0.88781527     0.83500
O363        O  0.27133951  0.58706056  0.97296923    -0.77600
C364        C  0.13966310  0.49870216  0.99380243     0.84300
O365        O  0.33962980  0.52302524  0.97101912    -0.77700
C366        C  0.24679874  0.39346328  0.99244290     0.84500
C367        C  0.25260705  0.49976613  0.09813197     0.84800
O368        O  0.27520425  0.47803208  0.08041241    -0.80100
O369        O  0.26962690  0.26943293  0.90755961    -0.77600
C370        C  0.24536465  0.35219398  0.99260628     0.83400
O371        O  0.33504223  0.22056120  0.01223572    -0.78800
O372        O  0.22550142  0.26965356  0.07935416    -0.80200
O373        O  0.15608429  0.22277931  0.96996881    -0.80000
O374        O  0.22484543  0.22490797  0.90420977    -0.78700
Zn375      Zn  0.27844215  0.27897428  0.96236699     1.55700
O376        O  0.15579553  0.26607598  0.01569576    -0.80100
Cd377      Cd  0.21312899  0.21309615  0.95975905     1.59700
Cd378      Cd  0.27829308  0.21216302  0.02333905     1.59600
O379        O  0.22343143  0.15594719  0.96875567    -0.80000
O380        O  0.24585453  0.24598201  0.99183468    -1.90600
Cd381      Cd  0.21244529  0.27842092  0.02361555     1.59900
O382        O  0.26633944  0.15546601  0.01487512    -0.80000
O383        O  0.22086962  0.33549043  0.01297689    -0.78700
C384        C  0.35156969  0.24580087  0.99265752     0.83900
C385        C  0.24800119  0.24773975  0.88883265     0.83500
O386        O  0.26888950  0.33410166  0.97244768    -0.77600
C387        C  0.13847806  0.24392527  0.99322532     0.84300
O388        O  0.33342456  0.27000465  0.97325364    -0.77700
C389        C  0.24465922  0.13820863  0.99188649     0.84500
C390        C  0.24871950  0.24810323  0.09645915     0.84800
O391        O  0.27011244  0.22487314  0.07927582    -0.80100
O392        O  0.52233623  0.34059925  0.97136859    -0.77600
C393        C  0.60327349  0.24808822  0.99473581     0.83400
O394        O  0.47672208  0.22770415  0.90459414    -0.78800
O395        O  0.51933405  0.15843922  0.01744576    -0.80200
O396        O  0.47593454  0.27610681  0.08022075    -0.80000
O397        O  0.47457421  0.34247571  0.01194247    -0.78700
Zn398      Zn  0.53095701  0.28351056  0.96188955     1.55700
O399        O  0.51827246  0.22918655  0.08167941    -0.80100
Cd400      Cd  0.46543545  0.28488931  0.02317502     1.59700
Cd401      Cd  0.46730748  0.21542296  0.96081549     1.59600
O402        O  0.40919250  0.27238978  0.01233285    -0.80000
O403        O  0.49862889  0.25056566  0.99252110    -1.90600
Cd404      Cd  0.52911677  0.21631337  0.02603023     1.59900
O405        O  0.41063614  0.22347270  0.97232450    -0.80000
O406        O  0.58585659  0.22556009  0.01676920    -0.78700
C407        C  0.49864762  0.25113938  0.88827828     0.83900
C408        C  0.49871963  0.35942212  0.99114107     0.83500
O409        O  0.58586784  0.27102529  0.97291225    -0.77600
C410        C  0.49733737  0.25331690  0.09824402     0.84300
O411        O  0.52037860  0.27338352  0.90647076    -0.77700
C412        C  0.39271772  0.24724038  0.99249514     0.84500
C413        C  0.49947173  0.14037720  0.99336817     0.84800
O414        O  0.47895369  0.15788360  0.96936402    -0.80100
O415        O  0.51970611  0.83501592  0.76321146    -0.77600
C416        C  0.49968454  0.74753372  0.84710852     0.83400
O417        O  0.58799034  0.72593056  0.71902692    -0.78800
O418        O  0.47785292  0.65724111  0.76357757    -0.80200
O419        O  0.41269335  0.76893507  0.71866250    -0.80000
O420        O  0.47704718  0.83645897  0.71705543    -0.78700
Zn421      Zn  0.53050086  0.77993179  0.77319080     1.55700
O422        O  0.41277639  0.72495808  0.76412654    -0.80100
Cd423      Cd  0.46846409  0.77948916  0.70748689     1.59700
Cd424      Cd  0.53225656  0.71396448  0.70830200     1.59600
O425        O  0.47876338  0.76933397  0.65084222    -0.80000
O426        O  0.50045871  0.74717542  0.74102434    -1.90600
Cd427      Cd  0.46864668  0.71396909  0.77384400     1.59900
O428        O  0.52262832  0.72409936  0.65116828    -0.80000
O429        O  0.47827491  0.72385154  0.83058447    -0.78700
C430        C  0.60375374  0.74918648  0.74143252     0.83900
C431        C  0.49839220  0.85322891  0.74060767     0.83500
O432        O  0.52071334  0.77018146  0.82863696    -0.77600
C433        C  0.39558425  0.74730271  0.74178378     0.84300
O434        O  0.58532940  0.77099304  0.76319155    -0.77700
C435        C  0.50085642  0.74682622  0.63352177     0.84500
C436        C  0.50032076  0.63957225  0.74177298     0.84800
O437        O  0.52289157  0.65685062  0.71954091    -0.80100
O438        O  0.27422809  0.52245330  0.82868916    -0.77600
C439        C  0.35987426  0.50090505  0.74228156     0.83400
O440        O  0.22923135  0.58630135  0.71594907    -0.78800
O441        O  0.27953673  0.48076308  0.65087090    -0.80200
O442        O  0.23008375  0.41325861  0.76198609    -0.80000
O443        O  0.22957430  0.47822195  0.82898772    -0.78700
Zn444      Zn  0.28499699  0.53181770  0.77288599     1.55700
O445        O  0.27510845  0.41243003  0.71766167    -0.80100
Cd446      Cd  0.22019459  0.46885545  0.77263760     1.59700
Cd447      Cd  0.21943269  0.52997927  0.70630373     1.59600
O448        O  0.16358814  0.47862727  0.76378410    -0.80000
O449        O  0.25354222  0.50050568  0.74033360    -1.90600
Cd450      Cd  0.28695606  0.46886850  0.70784412     1.59900
O451        O  0.16276513  0.52113739  0.71741123    -0.80000
O452        O  0.34330824  0.47833202  0.71970195    -0.78700
C453        C  0.25045391  0.60324392  0.73957082     0.83900
C454        C  0.25164641  0.50059161  0.84632743     0.83500
O455        O  0.34130437  0.52322871  0.76362167    -0.77600
C456        C  0.25219479  0.39564367  0.73988930     0.84300
O457        O  0.27250472  0.58577068  0.76207050    -0.77700
C458        C  0.14576197  0.50007622  0.74111061     0.84500
C459        C  0.25429339  0.49888483  0.63266875     0.84800
O460        O  0.22846403  0.51717156  0.64981768    -0.80100
O461        O  0.47907480  0.34079400  0.76572369    -0.77600
C462        C  0.39593458  0.25206430  0.74145009     0.83400
O463        O  0.52102668  0.22883531  0.83009054    -0.78800
O464        O  0.47743640  0.16356313  0.71627811    -0.80200
O465        O  0.52172680  0.27665270  0.65095103    -0.80000
O466        O  0.51794236  0.34242192  0.71677752    -0.78700
Zn467      Zn  0.46834634  0.28506060  0.77398307     1.55700
O468        O  0.47874917  0.23087363  0.64942128    -0.80100
Cd469      Cd  0.53052762  0.28606985  0.70800089     1.59700
Cd470      Cd  0.52971588  0.21963513  0.77341987     1.59600
O471        O  0.58680732  0.27521719  0.72002483    -0.80000
O472        O  0.49857352  0.25330650  0.74075913    -1.90600
Cd473      Cd  0.46806141  0.22055436  0.70635293     1.59900
O474        O  0.58550126  0.22860155  0.76284088    -0.80000
O475        O  0.41231998  0.23084335  0.71755378    -0.78700
C476        C  0.49936636  0.25176691  0.84710146     0.83900
C477        C  0.49831970  0.35939753  0.74163094     0.83500
O478        O  0.41364732  0.27383818  0.76396128    -0.77600
C479        C  0.50076125  0.25392737  0.63258017     0.84300
O480        O  0.47797904  0.27460399  0.82937136    -0.77700
C481        C  0.60334951  0.25146018  0.74163714     0.84500
C482        C  0.49791129  0.14630505  0.74034666     0.84800
O483        O  0.51872817  0.16354650  0.76391567    -0.80100
O484        O  0.52311211  0.28078974  0.33377315    -0.77600
C485        C  0.60488625  0.25380097  0.24407769     0.83400
O486        O  0.47748824  0.34551769  0.22395408    -0.78800
O487        O  0.51967030  0.23169298  0.15705748    -0.80200
O488        O  0.48098712  0.16567428  0.27142583    -0.80000
O489        O  0.48048869  0.23462255  0.33657600    -0.78700
Zn490      Zn  0.53338605  0.28866338  0.27759290     1.55700
O491        O  0.52137437  0.16575553  0.22326636    -0.80100
Cd492      Cd  0.47059676  0.22262360  0.28020647     1.59700
Cd493      Cd  0.46886934  0.28853101  0.21377317     1.59600
O494        O  0.41434557  0.23065402  0.26821405    -0.80000
O495        O  0.50141295  0.25615703  0.24679924    -1.90600
Cd496      Cd  0.53120070  0.22230927  0.21322682     1.59900
O497        O  0.41340896  0.27568775  0.22365621    -0.80000
O498        O  0.58729482  0.23179540  0.22183035    -0.78700
C499        C  0.50076763  0.36254125  0.24551005     0.83900
C500        C  0.50171901  0.25879280  0.35276590     0.83500
O501        O  0.58796271  0.27634315  0.26651750    -0.77600
C502        C  0.50106611  0.14826409  0.24722729     0.84300
O503        O  0.52397589  0.34437543  0.26633765    -0.77700
C504        C  0.39689224  0.25219885  0.24526493     0.84500
C505        C  0.49821687  0.25469235  0.13959942     0.84800
O506        O  0.47770672  0.27860029  0.15689231    -0.80100
O507        O  0.72559991  0.41485388  0.26728932    -0.77600
C508        C  0.74561580  0.50099540  0.35352028     0.83400
O509        O  0.65662013  0.52527634  0.22626328    -0.78800
O510        O  0.77064685  0.58944479  0.26830355    -0.80200
O511        O  0.83632879  0.48157762  0.22306788    -0.80000
O512        O  0.77064569  0.41577771  0.22317163    -0.78700
Zn513      Zn  0.71433511  0.46940997  0.27898783     1.55700
O514        O  0.83658789  0.52288263  0.27044374    -0.80100
Cd515      Cd  0.77974120  0.47170586  0.21406405     1.59700
Cd516      Cd  0.71330214  0.53393880  0.21460790     1.59600
O517        O  0.76945103  0.48168246  0.15793827    -0.80000
O518        O  0.74608651  0.50177107  0.24763417    -1.90600
Cd519      Cd  0.77957097  0.53330817  0.28031396     1.59900
O520        O  0.72229681  0.52337774  0.15762400    -0.80000
O521        O  0.76797565  0.52395053  0.33700367    -0.78700
C522        C  0.64000255  0.50206078  0.24825689     0.83900
C523        C  0.74833865  0.39806693  0.24500008     0.83500
O524        O  0.72440734  0.47851478  0.33495114    -0.77600
C525        C  0.85391469  0.50230052  0.24651211     0.84300
O526        O  0.65844296  0.47905788  0.26908366    -0.77700
C527        C  0.74592198  0.50241199  0.14038847     0.84500
C528        C  0.74905047  0.60671598  0.24528285     0.84800
O529        O  0.72587013  0.58989725  0.22357268    -0.80100
O530        O  0.41526501  0.72759211  0.26890351    -0.77600
C531        C  0.50191873  0.64144807  0.25098513     0.83400
O532        O  0.52482192  0.77020735  0.33848437    -0.78800
O533        O  0.58973510  0.72719471  0.22445012    -0.80200
O534        O  0.48188923  0.77095200  0.15904744    -0.80000
O535        O  0.41614244  0.77194955  0.22398111    -0.78700
Zn536      Zn  0.46993905  0.71621016  0.28095289     1.55700
O537        O  0.52279039  0.72316325  0.15896701    -0.80100
Cd538      Cd  0.47208572  0.78080570  0.21529804     1.59700
Cd539      Cd  0.53414675  0.78099980  0.28164517     1.59600
O540        O  0.48188177  0.83701763  0.22467677    -0.80000
O541        O  0.50222592  0.74747818  0.24920715    -1.90600
Cd542      Cd  0.53375272  0.71443422  0.21609425     1.59900
O543        O  0.52386360  0.83800718  0.27156643    -0.80000
O544        O  0.52484681  0.65780046  0.22848114    -0.78700
C545        C  0.50168616  0.74812729  0.35510086     0.83900
C546        C  0.39843341  0.74990590  0.24605935     0.83500
O547        O  0.47947436  0.66022667  0.27199477    -0.77600
C548        C  0.50215586  0.74706643  0.14156489     0.84300
O549        O  0.47942688  0.72664165  0.33661259    -0.77700
C550        C  0.50269923  0.85491583  0.24777914     0.84500
C551        C  0.60690154  0.75019658  0.24606895     0.84800
O552        O  0.59006112  0.77165830  0.26943065    -0.80100
O553        O  0.27680316  0.41459012  0.26707575    -0.77600
C554        C  0.36037347  0.50171085  0.24828053     0.83400
O555        O  0.23119758  0.52417584  0.33603645    -0.78800
O556        O  0.27707982  0.58808169  0.22281410    -0.80200
O557        O  0.23066805  0.47915028  0.15710330    -0.80000
O558        O  0.23081111  0.41470130  0.22377635    -0.78700
Zn559      Zn  0.28597754  0.46977754  0.27957527     1.55700
O560        O  0.27704772  0.52166262  0.15607675    -0.80100
Cd561      Cd  0.22114700  0.47026214  0.21369102     1.59700
Cd562      Cd  0.22131150  0.53314226  0.27907547     1.59600
O563        O  0.16487792  0.48051160  0.22286604    -0.80000
O564        O  0.25448574  0.50088491  0.24693127    -1.90600
Cd565      Cd  0.28732225  0.53168782  0.21285002     1.59900
O566        O  0.16451600  0.52344414  0.26890713    -0.80000
O567        O  0.34376437  0.52034430  0.22233928    -0.78700
C568        C  0.25247405  0.50061213  0.35306836     0.83900
C569        C  0.25392594  0.39738502  0.24511651     0.83500
O570        O  0.34155880  0.48276923  0.27252121    -0.77600
C571        C  0.25366707  0.50015066  0.13929042     0.84300
O572        O  0.27381607  0.47794278  0.33500436    -0.77700
C573        C  0.14745807  0.50207310  0.24558128     0.84500
C574        C  0.25410527  0.60540904  0.24436591     0.84800
O575        O  0.23163461  0.58869454  0.26687592    -0.80100
O576        O  0.41217777  0.97946942  0.72169211    -0.77600
C577        C  0.49936332  0.00003947  0.63459835     0.83400
O578        O  0.52011436  0.91091134  0.76578053    -0.78800
O579        O  0.58777293  0.02089609  0.72322709    -0.80200
O580        O  0.47680689  0.08837772  0.76497101    -0.80000
O581        O  0.41180455  0.02016259  0.76999224    -0.78700
Zn582      Zn  0.46701547  0.96893235  0.70974019     1.55700
O583        O  0.51998313  0.08766848  0.71880205    -0.80100
Cd584      Cd  0.46809536  0.03205730  0.77806668     1.59700
Cd585      Cd  0.52998443  0.96693452  0.77813306     1.59600
O586        O  0.47940608  0.02384033  0.83570048    -0.80000
O587        O  0.49874670  0.99933992  0.74341492    -1.90600
Cd588      Cd  0.53155730  0.03113462  0.70987052     1.59900
O589        O  0.51918288  0.97528058  0.83585810    -0.80000
O590        O  0.52282388  0.02114593  0.65207312    -0.78700
C591        C  0.49855167  0.89469148  0.74195139     0.83900
C592        C  0.39478864  0.99933296  0.74616321     0.83500
O593        O  0.47609965  0.97935642  0.65292875    -0.77600
C594        C  0.49793797  0.10519744  0.74115007     0.84300
O595        O  0.47726218  0.91326778  0.71946282    -0.77700
C596        C  0.49936624  0.99962771  0.85356449     0.84500
C597        C  0.60455361  0.99943283  0.74697536     0.84800
O598        O  0.58668321  0.97766421  0.76944344    -0.80100
O599        O  0.22694474  0.08621698  0.76723725    -0.77600
C600        C  0.14049982  0.00099707  0.74581766     0.83400
O601        O  0.26765014  0.97548966  0.83615858    -0.78800
O602        O  0.22542543  0.91257311  0.72220137    -0.80200
O603        O  0.27116951  0.02022998  0.65615681    -0.80000
O604        O  0.27163325  0.08602766  0.72252314    -0.78700
Zn605      Zn  0.21502212  0.03157924  0.77845996     1.55700
O606        O  0.22410942  0.97844585  0.65583266    -0.80100
Cd607      Cd  0.28038665  0.02999392  0.71268950     1.59700
Cd608      Cd  0.27961407  0.96801128  0.77934855     1.59600
O609        O  0.33650275  0.01888533  0.72197056    -0.80000
O610        O  0.24660626  0.99997429  0.74639864    -1.90600
Cd611      Cd  0.21389180  0.96869942  0.71267462     1.59900
O612        O  0.33646477  0.97922123  0.77102026    -0.80000
O613        O  0.15718271  0.97909911  0.72262840    -0.78700
C614        C  0.24549223  0.99837872  0.85286952     0.83900
C615        C  0.24950546  0.10323225  0.74487858     0.83500
O616        O  0.15905264  0.02218743  0.76834673    -0.77600
C617        C  0.24798570  0.99916274  0.63870409     0.84300
O618        O  0.22468694  0.02140440  0.83442615    -0.77700
C619        C  0.35372382  0.99898920  0.74640137     0.84500
C620        C  0.24887417  0.89542509  0.74345526     0.84800
O621        O  0.27106054  0.91230873  0.76611368    -0.80100
O622        O  0.22621434  0.97793921  0.40445236    -0.77600
C623        C  0.25079758  0.89438021  0.49140081     0.83400
O624        O  0.15937304  0.01996335  0.51556330    -0.78800
O625        O  0.27155405  0.97663055  0.58082938    -0.80200
O626        O  0.34232238  0.01793999  0.46816479    -0.80000
O627        O  0.27219916  0.02114699  0.40247461    -0.78700
Zn628      Zn  0.21650896  0.96762325  0.45980412     1.55700
O629        O  0.34155159  0.97748854  0.51632569    -0.80100
Cd630      Cd  0.28493951  0.02994525  0.45913766     1.59700
Cd631      Cd  0.21685503  0.03115508  0.52330950     1.59600
O632        O  0.27710448  0.08659130  0.47167676    -0.80000
O633        O  0.25013546  0.99856597  0.49113039    -1.90600
Cd634      Cd  0.28387232  0.96731271  0.52437649     1.59900
O635        O  0.22853257  0.08764539  0.51220303    -0.80000
O636        O  0.27430962  0.91120582  0.51276968    -0.78700
C637        C  0.14173067  0.99935673  0.49188724     0.83900
C638        C  0.24833657  0.99964949  0.38614520     0.83500
O639        O  0.22712989  0.91205485  0.47061195    -0.77600
C640        C  0.35966820  0.99751692  0.49241556     0.84300
O641        O  0.16018336  0.97900014  0.46859477    -0.77700
C642        C  0.25358911  0.10434336  0.49234011     0.84500
C643        C  0.24885557  0.99896438  0.59755866     0.84800
O644        O  0.22710794  0.02147499  0.57984068    -0.80100
O645        O  0.27002359  0.97964504  0.32664945    -0.77600
C646        C  0.24892311  0.89639720  0.24002913     0.83400
O647        O  0.33651435  0.02289762  0.21638301    -0.78800
O648        O  0.22728018  0.97613877  0.14850638    -0.80200
O649        O  0.15663754  0.02182603  0.25861238    -0.80000
O650        O  0.22194052  0.02018980  0.32832205    -0.78700
Zn651      Zn  0.27963414  0.96970882  0.27147263     1.55700
O652        O  0.15792583  0.97909467  0.21239187    -0.80100
Cd653      Cd  0.21308735  0.03095169  0.27126975     1.59700
Cd654      Cd  0.27965552  0.03201798  0.20589600     1.59600
O655        O  0.22462512  0.08723340  0.26256342    -0.80000
O656        O  0.24715240  0.99971409  0.23879667    -1.90600
Cd657      Cd  0.21510034  0.96771340  0.20509047     1.59900
O658        O  0.26903606  0.08767030  0.21763961    -0.80000
O659        O  0.22579068  0.91185637  0.21717427    -0.78700
C660        C  0.35302171  0.00139465  0.24006632     0.83900
C661        C  0.24653084  0.99974110  0.34487701     0.83500
O662        O  0.27053496  0.91508874  0.26173375    -0.77600
C663        C  0.13980001  0.00081041  0.23471092     0.84300
O664        O  0.33480308  0.97995415  0.26241598    -0.77700
C665        C  0.24729075  0.10463852  0.24067883     0.84500
C666        C  0.24874061  0.99930073  0.13122350     0.84800
O667        O  0.26975009  0.02263632  0.14885812    -0.80100
O668        O  0.52348166  0.91497456  0.26855852    -0.77600
C669        C  0.60524938  0.00221126  0.24196275     0.83400
O670        O  0.47570081  0.02071986  0.33582644    -0.78800
O671        O  0.52112597  0.08981630  0.22226892    -0.80200
O672        O  0.47956884  0.97677476  0.15262848    -0.80000
O673        O  0.47974843  0.91239157  0.22308899    -0.78700
Zn674      Zn  0.53298513  0.97050860  0.27781893     1.55700
O675        O  0.52061762  0.02431071  0.15222292    -0.80100
Cd676      Cd  0.46890470  0.96831022  0.21043004     1.59700
Cd677      Cd  0.46733975  0.03226968  0.27819326     1.59600
O678        O  0.41207689  0.97903159  0.21951754    -0.80000
O679        O  0.50045555  0.00075189  0.24455648    -1.90600
Cd680      Cd  0.53112290  0.03363101  0.20986737     1.59900
O681        O  0.41087907  0.02276318  0.26511957    -0.80000
O682        O  0.58783566  0.02358175  0.21877249    -0.78700
C683        C  0.49981991  0.00001949  0.35299363     0.83900
C684        C  0.50198867  0.89631488  0.24651161     0.83500
O685        O  0.58785640  0.98123827  0.26562156    -0.77600
C686        C  0.50019061  0.00033247  0.13465002     0.84300
O687        O  0.52372787  0.98033119  0.33448280    -0.77700
C688        C  0.39424078  0.00111787  0.24161504     0.84500
C689        C  0.50046247  0.10679008  0.24639138     0.84800
O690        O  0.47905432  0.08908107  0.26939304    -0.80100
O691        O  0.84186060  0.98202368  0.21821791    -0.77600
C692        C  0.75327581  0.89841176  0.24227640     0.83400
O693        O  0.73135157  0.02405680  0.15130021    -0.78800
O694        O  0.66399914  0.98032136  0.26447674    -0.80200
O695        O  0.77535090  0.02262066  0.33229946    -0.80000
O696        O  0.84290474  0.02110331  0.26729635    -0.78700
Zn697      Zn  0.78622717  0.97065526  0.20882857     1.55700
O698        O  0.72920117  0.97985716  0.33126990    -0.80100
Cd699      Cd  0.78627111  0.03236826  0.27566143     1.59700
Cd700      Cd  0.72108674  0.03317437  0.20835485     1.59600
O701        O  0.77576648  0.08861729  0.26529920    -0.80000
O702        O  0.75405981  0.00131520  0.24124752    -1.90600
Cd703      Cd  0.72036823  0.97059884  0.27443035     1.59900
O704        O  0.73129373  0.08884045  0.22027119    -0.80000
O705        O  0.73028428  0.91505833  0.26413984    -0.78700
C706        C  0.75346300  0.00122798  0.13440743     0.83900
C707        C  0.86003757  0.00155600  0.24247175     0.83500
O708        O  0.77606714  0.91588223  0.22053210    -0.77600
C709        C  0.75191792  0.00115925  0.34909116     0.84300
O710        O  0.77539550  0.97923583  0.15278371    -0.77700
C711        C  0.75318668  0.10589641  0.24313914     0.84500
C712        C  0.64668307  0.00190444  0.24152296     0.84800
O713        O  0.66418656  0.02329617  0.21840212    -0.80100
O714        O  0.84063983  0.97610064  0.47314039    -0.77600
C715        C  0.74825144  0.89434017  0.49307123     0.83400
O716        O  0.72712482  0.02218245  0.40695032    -0.78800
O717        O  0.65894325  0.97608978  0.51453478    -0.80200
O718        O  0.77599560  0.01856529  0.58258979    -0.80000
O719        O  0.84237753  0.02255883  0.51524603    -0.78700
Zn720      Zn  0.78385382  0.96744641  0.46302295     1.55700
O721        O  0.72747992  0.97787196  0.58297020    -0.80100
Cd722      Cd  0.78500714  0.03143664  0.52632358     1.59700
Cd723      Cd  0.71677115  0.03214653  0.46354189     1.59600
O724        O  0.77308834  0.08847555  0.51755609    -0.80000
O725        O  0.75108305  0.99911375  0.49437284    -1.90600
Cd726      Cd  0.71637977  0.96745134  0.52619032     1.59900
O727        O  0.72723265  0.08836171  0.47409024    -0.80000
O728        O  0.72583594  0.91116241  0.51549189    -0.78700
C729        C  0.75093216  0.00098081  0.39025933     0.83900
C730        C  0.85931353  0.99905350  0.49383458     0.83500
O731        O  0.77152225  0.91203256  0.47196861    -0.77600
C732        C  0.75222213  0.99785384  0.59998465     0.84300
O733        O  0.77378295  0.97952416  0.40806989    -0.77700
C734        C  0.74978439  0.10568057  0.49603414     0.84500
C735        C  0.64116467  0.00020763  0.49442749     0.84800
O736        O  0.65932249  0.02412933  0.47456390    -0.80100
O737        O  0.77349913  0.08653769  0.76809125    -0.77600
C738        C  0.75213036  0.00035932  0.85502861     0.83400
O739        O  0.84380218  0.97899220  0.72744406    -0.78800
O740        O  0.73009015  0.91212748  0.76825437    -0.80200
O741        O  0.66356980  0.02077484  0.72505953    -0.80000
O742        O  0.73008740  0.08568386  0.72205881    -0.78700
Zn743      Zn  0.78469930  0.03205830  0.78108929     1.55700
O744        O  0.66327797  0.97804287  0.77131037    -0.80100
Cd745      Cd  0.71987259  0.02955488  0.71459075     1.59700
Cd746      Cd  0.78735692  0.96917295  0.71568685     1.59600
O747        O  0.72785650  0.01708441  0.65841406    -0.80000
O748        O  0.75365509  0.00004088  0.74882118    -1.90600
Cd749      Cd  0.72034290  0.96782968  0.78111493     1.59900
O750        O  0.77846987  0.97964557  0.65859443    -0.80000
O751        O  0.73105550  0.97656145  0.83810388    -0.78700
C752        C  0.86007415  0.00036388  0.75140815     0.83900
C753        C  0.75175410  0.10321711  0.74463438     0.83500
O754        O  0.77300005  0.02345798  0.83680077    -0.77600
C755        C  0.64599592  0.99948131  0.74801941     0.84300
O756        O  0.84104375  0.02154661  0.77353764    -0.77700
C757        C  0.75282817  0.99797480  0.64119531     0.84500
C758        C  0.75236415  0.89550982  0.74548341     0.84800
O759        O  0.77574535  0.91293415  0.72442471    -0.80100
O760        O  0.72678256  0.72489446  0.57999754    -0.77600
C761        C  0.64053218  0.74686873  0.49411973     0.83400
O762        O  0.76758142  0.65603517  0.47022274    -0.78800
O763        O  0.72715216  0.77063226  0.40558355    -0.80200
O764        O  0.77102560  0.83570669  0.51339959    -0.80000
O765        O  0.77083568  0.77020071  0.57973294    -0.78700
Zn766      Zn  0.71466164  0.71416433  0.52542074     1.55700
O767        O  0.72376631  0.83612917  0.47181237    -0.80100
Cd768      Cd  0.78004878  0.77946696  0.52359046     1.59700
Cd769      Cd  0.77980654  0.71286524  0.46182145     1.59600
O770        O  0.83619129  0.77097617  0.51256946    -0.80000
O771        O  0.74653901  0.74573336  0.49343337    -1.90600
Cd772      Cd  0.71418661  0.77920350  0.46145802     1.59900
O773        O  0.83658320  0.72216984  0.47281961    -0.80000
O774        O  0.65737936  0.76840263  0.47062025    -0.78700
C775        C  0.74480105  0.63955174  0.49279836     0.83900
C776        C  0.74893480  0.74759534  0.59699227     0.83500
O777        O  0.65880650  0.72543285  0.51672168    -0.77600
C778        C  0.74773762  0.85320089  0.49247715     0.84300
O779        O  0.72365673  0.65818961  0.51525631    -0.77700
C780        C  0.85361915  0.74706991  0.49238175     0.84500
C781        C  0.75081754  0.74953993  0.38869386     0.84800
O782        O  0.77223605  0.72624323  0.40580718    -0.80100
O783        O  0.72691395  0.34262939  0.47085049    -0.77600
C784        C  0.74944195  0.25303224  0.38975243     0.83400
O785        O  0.65855339  0.23164659  0.51384596    -0.78800
O786        O  0.77194167  0.16412075  0.47380903    -0.80200
O787        O  0.83859015  0.27738702  0.51359757    -0.80000
O788        O  0.77081664  0.34431442  0.51592812    -0.78700
Zn789      Zn  0.71644798  0.28702890  0.46150564     1.55700
O790        O  0.83740113  0.22965854  0.47254269    -0.80100
Cd791      Cd  0.78185654  0.28737032  0.52472614     1.59700
Cd792      Cd  0.71518641  0.22153228  0.52461187     1.59600
O793        O  0.77266446  0.27506128  0.58085203    -0.80000
O794        O  0.74813021  0.25481114  0.49313340    -1.90600
Cd795      Cd  0.78102675  0.22060330  0.46294477     1.59900
O796        O  0.72600663  0.23226736  0.58049108    -0.80000
O797        O  0.77124698  0.23032794  0.40711648    -0.78700
C798        C  0.64187423  0.25578437  0.49288060     0.83900
C799        C  0.74829171  0.36101362  0.49325395     0.83500
O800        O  0.72735053  0.27573730  0.40685664    -0.77600
C801        C  0.85523687  0.25311539  0.49293866     0.84300
O802        O  0.66047558  0.27838973  0.47179106    -0.77700
C803        C  0.74966469  0.25311004  0.59771240     0.84500
C804        C  0.74923180  0.14692243  0.49564952     0.84800
O805        O  0.72564374  0.16438158  0.51638836    -0.80100
O806        O  0.27685558  0.76914763  0.40748136    -0.77600
C807        C  0.25079906  0.85319889  0.49164265     0.83400
O808        O  0.34277883  0.72216291  0.51253710    -0.78800
O809        O  0.23020223  0.76928062  0.57938136    -0.80200
O810        O  0.16368859  0.72444951  0.47108370    -0.80000
O811        O  0.23105313  0.72552948  0.40552378    -0.78700
Zn812      Zn  0.28605116  0.78011228  0.46244466     1.55700
O813        O  0.16406728  0.76978641  0.51465689    -0.80100
Cd814      Cd  0.22052991  0.71381242  0.46115078     1.59700
Cd815      Cd  0.28609839  0.71353182  0.52402485     1.59600
O816        O  0.23086061  0.65659363  0.47038461    -0.80000
O817        O  0.25371478  0.74708680  0.49228598    -1.90600
Cd818      Cd  0.22025181  0.77960587  0.52377497     1.59900
O819        O  0.27582751  0.65676421  0.51442695    -0.80000
O820        O  0.22828755  0.83621941  0.51381578    -0.78700
C821        C  0.35999168  0.74763099  0.49380960     0.83900
C822        C  0.25415352  0.74786441  0.38941309     0.83500
O823        O  0.27406099  0.83548210  0.47075995    -0.77600
C824        C  0.14650695  0.74737185  0.49288691     0.84300
O825        O  0.34166852  0.77231659  0.47493988    -0.77700
C826        C  0.25339481  0.63914237  0.49249600     0.84500
C827        C  0.25242714  0.74718361  0.59686317     0.84800
O828        O  0.27531216  0.72485949  0.58031077    -0.80100
O829        O  0.27583803  0.27437094  0.40597292    -0.77600
C830        C  0.25294536  0.35998406  0.49189437     0.83400
O831        O  0.34515593  0.23185074  0.51422119    -0.78800
O832        O  0.23098267  0.27327246  0.57991220    -0.80200
O833        O  0.16559126  0.22887138  0.47108098    -0.80000
O834        O  0.23177955  0.22914615  0.40611484    -0.78700
Zn835      Zn  0.28619401  0.28629170  0.46079624     1.55700
O836        O  0.16505815  0.27486377  0.51391959    -0.80100
Cd837      Cd  0.22196061  0.21965870  0.46182771     1.59700
Cd838      Cd  0.28838670  0.21984123  0.52362317     1.59600
O839        O  0.23074700  0.16321978  0.47235158    -0.80000
O840        O  0.25521160  0.25340925  0.49227481    -1.90600
Cd841      Cd  0.22161372  0.28563373  0.52404318     1.59900
O842        O  0.27925776  0.16266153  0.51252720    -0.80000
O843        O  0.23125066  0.34279050  0.51495890    -0.78700
C844        C  0.36124130  0.25600889  0.49276926     0.83900
C845        C  0.25372823  0.25167458  0.38880599     0.83500
O846        O  0.27459992  0.34197151  0.46945881    -0.77600
C847        C  0.14796261  0.25142600  0.49265477     0.84300
O848        O  0.34202650  0.27837814  0.47194961    -0.77700
C849        C  0.25470262  0.14560244  0.49246195     0.84500
C850        C  0.25266692  0.25017149  0.59695399     0.84800
O851        O  0.27583343  0.22857718  0.57989064    -0.80100
N852        N  0.95837989  0.04033442  0.49531076    -0.35800
N853        N  0.95823498  0.95738670  0.49072434    -0.56300
N854        N  0.04174828  0.95776456  0.49310759    -0.35700
N855        N  0.04179166  0.04046947  0.49180325    -0.56300
C856        C  0.92118893  0.03367817  0.48839728     0.27800
C857        C  0.96497823  0.07756557  0.48852667     0.27800
C858        C  0.03484970  0.92036978  0.48741638     0.27800
C859        C  0.07921777  0.96409680  0.48687131     0.27800
C860        C  0.92088380  0.96344537  0.49708238     0.36500
C861        C  0.96454177  0.92001508  0.49679236     0.36500
C862        C  0.03543614  0.07806108  0.49657053     0.36500
C863        C  0.07960432  0.03477563  0.49588401     0.36500
C864        C  0.90406190  0.06715700  0.47724075    -0.21000
C865        C  0.93151870  0.09468293  0.47733812    -0.21000
C866        C  0.06827938  0.90271028  0.47755273    -0.21000
C867        C  0.09605286  0.92977590  0.47762826    -0.21000
C868        C  0.90354823  0.92978612  0.50712519    -0.22100
C869        C  0.93104077  0.90244281  0.50698170    -0.22100
C870        C  0.06929381  0.09625458  0.50359118    -0.22100
C871        C  0.09702948  0.06939059  0.50246627    -0.22100
C872        C  0.90182556  0.99864328  0.49307988    -0.17400
C873        C  0.00002676  0.09691482  0.49288570    -0.17400
C874        C  0.09886793  0.99934659  0.49154477    -0.17400
C875        C  0.99975783  0.90108256  0.49245965    -0.17400
H876        H  0.87480287  0.07140980  0.46945335     0.15500
H877        H  0.92724534  0.12396823  0.46959139     0.15500
H878        H  0.07258897  0.87314037  0.47115969     0.15500
H879        H  0.12529108  0.92363472  0.47183702     0.15500
H880        H  0.87420602  0.92531676  0.51438575     0.13800
H881        H  0.92675508  0.87302052  0.51414339     0.13800
H882        H  0.07398876  0.12600594  0.50870276     0.13800
H883        H  0.12662339  0.07584713  0.50558523     0.13800
H884        H  0.97729100  0.02144806  0.50741138     0.27000
H885        H  0.02267574  0.97692256  0.50428121     0.27000
N886        N  0.50163513  0.95837572  0.95281852    -0.35800
N887        N  0.49827733  0.95845439  0.03590266    -0.56300
N888        N  0.50268927  0.04143366  0.03534898    -0.35700
N889        N  0.49843387  0.04136544  0.95229948    -0.56300
C890        C  0.49383439  0.92141666  0.95982871     0.27800
C891        C  0.49408049  0.96512579  0.91574125     0.27800
C892        C  0.49550505  0.03481965  0.07251195     0.27800
C893        C  0.49532046  0.07851206  0.02843261     0.27800
C894        C  0.50415202  0.92102448  0.02983524     0.36500
C895        C  0.50471185  0.96468997  0.07322355     0.36500
C896        C  0.50476183  0.03501809  0.91499600     0.36500
C897        C  0.50488865  0.07869936  0.95835278     0.36500
C898        C  0.48117352  0.90459628  0.92677849    -0.21000
C899        C  0.48132193  0.93202429  0.89911461    -0.21000
C900        C  0.48361292  0.06814431  0.08929865    -0.21000
C901        C  0.48345695  0.09553296  0.06165202    -0.21000
C902        C  0.51434821  0.90357913  0.06345183    -0.22100
C903        C  0.51468601  0.93107657  0.09077505    -0.22100
C904        C  0.51534733  0.06845330  0.89746443    -0.22100
C905        C  0.51537299  0.09597360  0.92476483    -0.22100
C906        C  0.49918284  0.90198099  0.99476250    -0.17400
C907        C  0.49965098  0.99989992  0.89609624    -0.17400
C908        C  0.50015327  0.09784727  0.99338370    -0.17400
C909        C  0.50039299  0.99992502  0.09210977    -0.17400
H910        H  0.47245756  0.87555141  0.92290955     0.15500
H911        H  0.47272405  0.92795943  0.87005482     0.15500
H912        H  0.47543617  0.07237604  0.11843958     0.15500
H913        H  0.47514329  0.12466803  0.06567304     0.15500
H914        H  0.52124287  0.87412771  0.06794808     0.13800
H915        H  0.52188485  0.92671100  0.12018079     0.13800
H916        H  0.52266759  0.07269764  0.86808286     0.13800
H917        H  0.52272842  0.12531880  0.92031108     0.13800
H918        H  0.51491565  0.97689281  0.97127916     0.27000
H919        H  0.51525987  0.02264475  0.01669037     0.27000
N920        N  0.95754384  0.50049706  0.95281452    -0.35800
N921        N  0.04060870  0.49696994  0.95248280    -0.56300
N922        N  0.04060417  0.50074600  0.03540498    -0.35700
N923        N  0.95752205  0.49649910  0.03581506    -0.56300
C924        C  0.96426972  0.49340492  0.91568826     0.27800
C925        C  0.92053310  0.49284911  0.95957994     0.27800
C926        C  0.07771697  0.49348310  0.02868694     0.27800
C927        C  0.03393408  0.49368684  0.07256734     0.27800
C928        C  0.03423248  0.50364815  0.91519953     0.36500
C929        C  0.07795745  0.50331094  0.95863980     0.36500
C930        C  0.92005879  0.50217806  0.02969603     0.36500
C931        C  0.96374527  0.50277080  0.07316565     0.36500
C932        C  0.93112771  0.48106754  0.89880050    -0.21000
C933        C  0.90367980  0.48074473  0.92633409    -0.21000
C934        C  0.09469044  0.48163704  0.06200848    -0.21000
C935        C  0.06723308  0.48178786  0.08954073    -0.21000
C936        C  0.06768423  0.51421408  0.89778254    -0.22100
C937        C  0.09521384  0.51397117  0.92512099    -0.22100
C938        C  0.90255643  0.51189368  0.06334150    -0.22100
C939        C  0.93005686  0.51228986  0.09069754    -0.22100
C940        C  0.99903729  0.49906144  0.89619830    -0.17400
C941        C  0.90107272  0.49780733  0.99447482    -0.17400
C942        C  0.99909045  0.49898538  0.09205509    -0.17400
C943        C  0.09710888  0.49860718  0.99374369    -0.17400
H944        H  0.92703949  0.47286932  0.86964080     0.15500
H945        H  0.87459806  0.47226807  0.92224757     0.15500
H946        H  0.12385874  0.47348438  0.06617074     0.15500
H947        H  0.07140749  0.47373376  0.11876358     0.15500
H948        H  0.07192092  0.52180553  0.86846223     0.13800
H949        H  0.12453352  0.52138222  0.92073493     0.13800
H950        H  0.87309064  0.51860520  0.06783218     0.13800
H951        H  0.92560874  0.51933657  0.12009039     0.13800
H952        H  0.97613230  0.51341370  0.97146480     0.27000
H953        H  0.02185702  0.51340764  0.01669043     0.27000
N954        N  0.45759641  0.54197759  0.98818012    -0.35800
N955        N  0.54074894  0.54180157  0.99327729    -0.56300
N956        N  0.54089934  0.45861742  0.98796462    -0.35700
N957        N  0.45774216  0.45870502  0.99074991    -0.56300
C958        C  0.46419686  0.57912198  0.99555534     0.27800
C959        C  0.42028883  0.53515827  0.99443347     0.27800
C960        C  0.57786241  0.46538740  0.99603119     0.27800
C961        C  0.53397975  0.42146286  0.99513536     0.27800
C962        C  0.53466033  0.57936049  0.98784560     0.36500
C963        C  0.57822449  0.53570768  0.98749990     0.36500
C964        C  0.42031740  0.46489583  0.98473409     0.36500
C965        C  0.46395703  0.42129672  0.98466896     0.36500
C966        C  0.43054501  0.59607487  0.00627290    -0.21000
C967        C  0.40304544  0.56853833  0.00558935    -0.21000
C968        C  0.59453646  0.43207424  0.00829536    -0.21000
C969        C  0.56702196  0.40454146  0.00775286    -0.21000
C970        C  0.56840842  0.59696768  0.97859770    -0.22100
C971        C  0.59578015  0.56952358  0.97833374    -0.22100
C972        C  0.40291694  0.43129508  0.97461770    -0.22100
C973        C  0.43036446  0.40388148  0.97455652    -0.22100
C974        C  0.49944653  0.59848117  0.99207056    -0.17400
C975        C  0.40107100  0.49995637  0.98968071    -0.17400
C976        C  0.49900513  0.40207583  0.98983117    -0.17400
C977        C  0.59732934  0.50046586  0.99174657    -0.17400
H978        H  0.42615063  0.62523388  0.01428442     0.15500
H979        H  0.37370373  0.57274022  0.01299592     0.15500
H980        H  0.62349201  0.42797584  0.01721396     0.15500
H981        H  0.57096143  0.37539568  0.01616820     0.15500
H982        H  0.57295704  0.62650066  0.97209106     0.13800
H983        H  0.62523752  0.57410252  0.97164075     0.13800
H984        H  0.37348382  0.42686276  0.96766906     0.13800
H985        H  0.42594326  0.37445547  0.96759600     0.13800
H986        H  0.47677101  0.52314573  0.97651862     0.27000
H987        H  0.52240842  0.47743870  0.97506685     0.27000
N988        N  0.00157392  0.54073082  0.53533919    -0.35800
N989        N  0.99953904  0.45722160  0.53542744    -0.56300
N990        N  0.00172413  0.45762031  0.45213141    -0.35700
N991        N  0.00010103  0.54115835  0.45212250    -0.56300
C992        C  0.99700941  0.53418757  0.57298664     0.27800
C993        C  0.99710929  0.57847485  0.52913365     0.27800
C994        C  0.99714605  0.41988280  0.45822569     0.27800
C995        C  0.99758733  0.46431174  0.41445547     0.27800
C996        C  0.00200947  0.46312096  0.57335384     0.36500
C997        C  0.00242924  0.41932569  0.52959810     0.36500
C998        C  0.00321676  0.57900485  0.45793779     0.36500
C999        C  0.00338869  0.53527974  0.41431124     0.36500
C1000       C  0.98987473  0.56823955  0.59084019    -0.21000
C1001       C  0.99057976  0.59590686  0.56371895    -0.21000
C1002       C  0.99074236  0.40261310  0.42349501    -0.21000
C1003       C  0.99043770  0.43038679  0.39640991    -0.21000
C1004       C  0.00630553  0.42876287  0.59161860    -0.22100
C1005       C  0.00584614  0.40132140  0.56440431    -0.22100
C1006       C  0.00767720  0.59700543  0.42326928    -0.22100
C1007       C  0.00855416  0.56958305  0.39613915    -0.22100
C1008       C  0.99964150  0.49871427  0.59223456    -0.17400
C1009       C  0.00030245  0.59788634  0.49361344    -0.17400
C1010       C  0.00081548  0.49980556  0.39537075    -0.17400
C1011       C  0.00028642  0.40038977  0.49376791    -0.17400
H1012       H  0.98456361  0.57313870  0.62051751     0.15500
H1013       H  0.98697381  0.62550597  0.56992368     0.15500
H1014       H  0.98696029  0.37307770  0.41714529     0.15500
H1015       H  0.98552922  0.42568109  0.36661906     0.15500
H1016       H  0.00934086  0.42349859  0.62156956     0.13800
H1017       H  0.00726381  0.37147463  0.57053522     0.13800
H1018       H  0.00966915  0.62680914  0.41712796     0.13800
H1019       H  0.01249405  0.57484686  0.36629790     0.13800
H1020       H  0.01030029  0.52113321  0.51568506     0.27000
H1021       H  0.01040446  0.47715037  0.47194411     0.27000
N1022       N  0.45830408  0.99545434  0.53509336    -0.35800
N1023       N  0.54132962  0.99987249  0.53540559    -0.56300
N1024       N  0.54165047  0.99806263  0.45241025    -0.35700
N1025       N  0.45860884  0.99912882  0.45186943    -0.56300
C1026       C  0.46467017  0.00300352  0.57222606     0.27800
C1027       C  0.42118642  0.00230848  0.52795335     0.27800
C1028       C  0.57876549  0.00566806  0.45912718     0.27800
C1029       C  0.53468707  0.00470189  0.41512779     0.27800
C1030       C  0.53505971  0.99539351  0.57309094     0.36500
C1031       C  0.57913108  0.99580939  0.52972380     0.36500
C1032       C  0.42141689  0.99210777  0.45793141     0.36500
C1033       C  0.46501029  0.99297720  0.41456453     0.36500
C1034       C  0.43112897  0.01459586  0.58878768    -0.21000
C1035       C  0.40386774  0.01420489  0.56102062    -0.21000
C1036       C  0.59530056  0.01687980  0.42518422    -0.21000
C1037       C  0.56765979  0.01663658  0.39794131    -0.21000
C1038       C  0.56897570  0.98860433  0.59132033    -0.22100
C1039       C  0.59664682  0.98948738  0.56437304    -0.22100
C1040       C  0.40432594  0.98127887  0.42438122    -0.22100
C1041       C  0.43180379  0.98182851  0.39705116    -0.22100
C1042       C  0.49963131  0.99912636  0.59191236    -0.17400
C1043       C  0.40212125  0.99702981  0.49281896    -0.17400
C1044       C  0.49991748  0.99884764  0.39559221    -0.17400
C1045       C  0.59837709  0.00043007  0.49434806    -0.17400
H1046       H  0.42669528  0.02300933  0.61782767     0.15500
H1047       H  0.37462277  0.02220092  0.56484734     0.15500
H1048       H  0.62421508  0.02440654  0.41940973     0.15500
H1049       H  0.57171794  0.02424266  0.36859384     0.15500
H1050       H  0.57374774  0.98378435  0.62113068     0.13800
H1051       H  0.62629414  0.98653324  0.57073873     0.13800
H1052       H  0.37509917  0.97351921  0.41994147     0.13800
H1053       H  0.42770164  0.97457921  0.36764103     0.13800
H1054       H  0.47732120  0.98305045  0.51655983     0.27000
H1055       H  0.52310207  0.98534261  0.47121827     0.27000
N1056       N  0.04120607  0.95936591  0.23445849    -0.35800
N1057       N  0.04180576  0.04260387  0.23698987    -0.56300
N1058       N  0.95894033  0.04287626  0.23766144    -0.35700
N1059       N  0.95855712  0.95968370  0.23960065    -0.56300
C1060       C  0.07888457  0.96567203  0.23727749     0.27800
C1061       C  0.03523856  0.92185959  0.23987623     0.27800
C1062       C  0.96558848  0.08047251  0.24136609     0.27800
C1063       C  0.92144222  0.03695288  0.24294276     0.27800
C1064       C  0.07909590  0.03644808  0.23107292     0.36500
C1065       C  0.03605885  0.08026151  0.23298671     0.36500
C1066       C  0.96404318  0.92173750  0.24007579     0.36500
C1067       C  0.92073195  0.96559173  0.24091135     0.36500
C1068       C  0.09711384  0.93162315  0.24384358    -0.21000
C1069       C  0.06996757  0.90414107  0.24477231    -0.21000
C1070       C  0.93176384  0.09870029  0.24876334    -0.21000
C1071       C  0.90406732  0.07167897  0.24902274    -0.21000
C1072       C  0.09705157  0.07038692  0.22323498    -0.22100
C1073       C  0.06993297  0.09800363  0.22443564    -0.22100
C1074       C  0.92944674  0.90356642  0.24287016    -0.22100
C1075       C  0.90227316  0.93107013  0.24341567    -0.22100
C1076       C  0.09771295  0.00098432  0.23368098    -0.17400
C1077       C  0.99964600  0.90293914  0.24003745    -0.17400
C1078       C  0.90227234  0.00141342  0.24176142    -0.17400
C1079       C  0.00095416  0.09923442  0.23741338    -0.17400
H1080       H  0.12699879  0.92663803  0.24775828     0.15500
H1081       H  0.07604356  0.87450867  0.24868663     0.15500
H1082       H  0.92705485  0.12851608  0.25346088     0.15500
H1083       H  0.87452588  0.07786313  0.25322243     0.15500
H1084       H  0.12660158  0.07488979  0.21686024     0.13800
H1085       H  0.07472578  0.12772204  0.21904546     0.13800
H1086       H  0.92398705  0.87361113  0.24544569     0.13800
H1087       H  0.87235420  0.92582372  0.24656894     0.13800
H1088       H  0.02121144  0.97905053  0.22645535     0.27000
H1089       H  0.97830372  0.02286805  0.22911991     0.27000
N1090       N  0.95905900  0.04221263  0.75378720    -0.35800
N1091       N  0.04213971  0.04263198  0.75032312    -0.56300
N1092       N  0.04161051  0.95963650  0.74560967    -0.35700
N1093       N  0.95876746  0.95929611  0.74925961    -0.56300
C1094       C  0.96500593  0.07999621  0.75057016     0.27800
C1095       C  0.92122078  0.03612530  0.75180745     0.27800
C1096       C  0.07928102  0.96596161  0.74930877     0.27800
C1097       C  0.03569943  0.92185450  0.74939763     0.27800
C1098       C  0.03623476  0.08034016  0.74741040     0.36500
C1099       C  0.07964387  0.03687932  0.74538341     0.36500
C1100       C  0.92116232  0.96500555  0.75373664     0.36500
C1101       C  0.96452091  0.92144041  0.75039999     0.36500
C1102       C  0.93022533  0.09804601  0.74804447    -0.21000
C1103       C  0.90297806  0.07060803  0.74804697    -0.21000
C1104       C  0.09745241  0.93174905  0.75510186    -0.21000
C1105       C  0.07039677  0.90413009  0.75440406    -0.21000
C1106       C  0.07027248  0.09848737  0.74032922    -0.22100
C1107       C  0.09757321  0.07112219  0.73901975    -0.22100
C1108       C  0.90312472  0.93054618  0.75846701    -0.22100
C1109       C  0.93032672  0.90316863  0.75625211    -0.22100
C1110       C  0.00063312  0.09890171  0.74916812    -0.17400
C1111       C  0.90235481  0.00056634  0.75304774    -0.17400
C1112       C  0.00012291  0.90276882  0.74855565    -0.17400
C1113       C  0.09827894  0.00137200  0.74677921    -0.17400
H1114       H  0.92431435  0.12791870  0.74604914     0.15500
H1115       H  0.87306322  0.07599434  0.74515258     0.15500
H1116       H  0.12727219  0.92677413  0.75954812     0.15500
H1117       H  0.07651284  0.87443067  0.75757537     0.15500
H1118       H  0.07506959  0.12826895  0.73534320     0.13800
H1119       H  0.12714738  0.07606784  0.73315454     0.13800
H1120       H  0.87348810  0.92540298  0.76382581     0.13800
H1121       H  0.92532649  0.87325049  0.76003135     0.13800
H1122       H  0.97944684  0.02196392  0.75895683     0.27000
H1123       H  0.02162481  0.97952833  0.73782528     0.27000
N1124       N  0.24617220  0.95786372  0.03351922    -0.35800
N1125       N  0.24697466  0.95762504  0.95116038    -0.56300
N1126       N  0.24189155  0.04002349  0.95086065    -0.35700
N1127       N  0.24769297  0.04038814  0.03317078    -0.56300
C1128       C  0.25459190  0.92115468  0.02676659     0.27800
C1129       C  0.25496345  0.96498757  0.07006610     0.27800
C1130       C  0.24967437  0.03320933  0.91401291     0.27800
C1131       C  0.24966433  0.07692447  0.95742287     0.27800
C1132       C  0.24127009  0.92033889  0.95762765     0.36500
C1133       C  0.23950616  0.96357687  0.91409031     0.36500
C1134       C  0.24191169  0.03414685  0.07045156     0.36500
C1135       C  0.23978299  0.07729883  0.02701101     0.36500
C1136       C  0.26885477  0.90476957  0.05944755    -0.21000
C1137       C  0.26908261  0.93240676  0.08674797    -0.21000
C1138       C  0.26236915  0.06619730  0.89701248    -0.21000
C1139       C  0.26233141  0.09373614  0.92434887    -0.21000
C1140       C  0.23000961  0.90263982  0.92455260    -0.22100
C1141       C  0.22896316  0.92997473  0.89701441    -0.22100
C1142       C  0.23030433  0.06719145  0.08795136    -0.22100
C1143       C  0.22898496  0.09450165  0.06045964    -0.22100
C1144       C  0.24810958  0.90165965  0.99242276    -0.17400
C1145       C  0.24863492  0.99949706  0.08927111    -0.17400
C1146       C  0.24424108  0.09618732  0.99205269    -0.17400
C1147       C  0.24428681  0.99843887  0.89494893    -0.17400
H1148       H  0.27813245  0.87587688  0.06330938     0.15500
H1149       H  0.27852242  0.92884017  0.11563600     0.15500
H1150       H  0.27098200  0.07010098  0.86793185     0.15500
H1151       H  0.27089665  0.12281322  0.92028018     0.15500
H1152       H  0.22327079  0.87309208  0.92054704     0.13800
H1153       H  0.22130073  0.92553520  0.86774745     0.13800
H1154       H  0.22335845  0.07128448  0.11743566     0.13800
H1155       H  0.22086588  0.12367056  0.06468031     0.13800
H1156       H  0.23139639  0.97579436  0.01553275     0.27000
H1157       H  0.22844025  0.02162370  0.96940360     0.27000
N1158       N  0.04041367  0.24107340  0.95223734    -0.35800
N1159       N  0.04042753  0.24457824  0.03464179    -0.56300
N1160       N  0.95756229  0.24181648  0.03435747    -0.35700
N1161       N  0.95758599  0.24339239  0.95202301    -0.56300
C1162       C  0.07722457  0.24893834  0.95910705     0.27800
C1163       C  0.03370567  0.24964477  0.91552345     0.27800
C1164       C  0.96427149  0.24837816  0.07156502     0.27800
C1165       C  0.92019388  0.24786522  0.02789555     0.27800
C1166       C  0.07772676  0.23850358  0.02874238     0.36500
C1167       C  0.03438279  0.23930769  0.07204473     0.36500
C1168       C  0.96394150  0.23932830  0.91448365     0.36500
C1169       C  0.91999759  0.23842132  0.95750546     0.36500
C1170       C  0.09404523  0.26244958  0.92637525    -0.21000
C1171       C  0.06663119  0.26292219  0.89893614    -0.21000
C1172       C  0.93078324  0.25827866  0.08907617    -0.21000
C1173       C  0.90309398  0.25741136  0.06199946    -0.21000
C1174       C  0.09538019  0.22932699  0.06250849    -0.22100
C1175       C  0.06800560  0.22988613  0.08988660    -0.22100
C1176       C  0.93032508  0.23176056  0.89602243    -0.22100
C1177       C  0.90259010  0.23167749  0.92292484    -0.22100
C1178       C  0.09647954  0.24318335  0.99371323    -0.17400
C1179       C  0.99910823  0.24472461  0.89608535    -0.17400
C1180       C  0.90088813  0.24309951  0.99264476    -0.17400
C1181       C  0.99934333  0.24428299  0.09073732    -0.17400
H1182       H  0.12303335  0.27139731  0.92262413     0.15500
H1183       H  0.07054727  0.27227233  0.87006706     0.15500
H1184       H  0.92637772  0.26512192  0.11853020     0.15500
H1185       H  0.87370335  0.26277791  0.06791691     0.15500
H1186       H  0.12490845  0.22285317  0.06706959     0.13800
H1187       H  0.07244399  0.22377450  0.11953574     0.13800
H1188       H  0.92589414  0.22732559  0.86610241     0.13800
H1189       H  0.87299702  0.22781011  0.91674219     0.13800
H1190       H  0.02208914  0.22705170  0.97037775     0.27000
H1191       H  0.97667259  0.23036485  0.01540301     0.27000
N1192       N  0.75148659  0.95961610  0.95357614    -0.35800
N1193       N  0.75553901  0.95932205  0.03625307    -0.56300
N1194       N  0.75003448  0.04176319  0.03574563    -0.35700
N1195       N  0.75315834  0.04204708  0.95300962    -0.56300
C1196       C  0.75978750  0.92283708  0.96033979     0.27800
C1197       C  0.75885446  0.96642814  0.91658763     0.27800
C1198       C  0.75813607  0.03528103  0.07266406     0.27800
C1199       C  0.75690460  0.07882648  0.02878521     0.27800
C1200       C  0.74989653  0.92195620  0.03017547     0.36500
C1201       C  0.74950408  0.96529941  0.07357697     0.36500
C1202       C  0.74670036  0.03578618  0.91582479     0.36500
C1203       C  0.74584171  0.07907115  0.95911994     0.36500
C1204       C  0.77248717  0.90614061  0.92726656    -0.21000
C1205       C  0.77194896  0.93358436  0.89974498    -0.21000
C1206       C  0.77010972  0.06865876  0.08930715    -0.21000
C1207       C  0.76937310  0.09603820  0.06170551    -0.21000
C1208       C  0.74040670  0.90417962  0.06380452    -0.22100
C1209       C  0.74017642  0.93156321  0.09123093    -0.22100
C1210       C  0.73529936  0.06895327  0.89830855    -0.22100
C1211       C  0.73473956  0.09632773  0.92569055    -0.22100
C1212       C  0.75458569  0.90336684  0.99501560    -0.17400
C1213       C  0.75244259  0.00092415  0.89713179    -0.17400
C1214       C  0.75080657  0.09796578  0.99400778    -0.17400
C1215       C  0.75362302  0.00050146  0.09222292    -0.17400
H1216       H  0.78134372  0.87714776  0.92329899     0.15500
H1217       H  0.78031815  0.92968857  0.87060423     0.15500
H1218       H  0.77872907  0.07291318  0.11833742     0.15500
H1219       H  0.77732156  0.12530874  0.06553496     0.15500
H1220       H  0.73406339  0.87458860  0.06821160     0.13800
H1221       H  0.73358602  0.92706461  0.12075259     0.13800
H1222       H  0.72791987  0.07306501  0.86890584     0.13800
H1223       H  0.72685920  0.12556879  0.92139665     0.13800
H1224       H  0.73772592  0.97776238  0.97202933     0.27000
H1225       H  0.73688025  0.02300090  0.01744736     0.27000
N1226       N  0.95943803  0.75379444  0.95251878    -0.35800
N1227       N  0.04219145  0.75769103  0.95225651    -0.56300
N1228       N  0.04208043  0.75615523  0.03478906    -0.35700
N1229       N  0.95921957  0.75789115  0.03522831    -0.56300
C1230       C  0.96589602  0.76066005  0.91538369     0.27800
C1231       C  0.92242287  0.76103231  0.95916428     0.27800
C1232       C  0.07938475  0.76266418  0.02856806     0.27800
C1233       C  0.03534736  0.76157774  0.07213769     0.27800
C1234       C  0.03608338  0.75272809  0.91472793     0.36500
C1235       C  0.07990345  0.75384524  0.95803033     0.36500
C1236       C  0.92202688  0.75132924  0.02907586     0.36500
C1237       C  0.96543626  0.75132864  0.07244253     0.36500
C1238       C  0.93255707  0.77223724  0.89827519    -0.21000
C1239       C  0.90522621  0.77251672  0.92582212    -0.21000
C1240       C  0.09635379  0.77191047  0.06282768    -0.21000
C1241       C  0.06868748  0.77163203  0.08990780    -0.21000
C1242       C  0.07003306  0.74613035  0.89655547    -0.22100
C1243       C  0.09763878  0.74756023  0.92354162    -0.22100
C1244       C  0.90460123  0.74073686  0.06252310    -0.22100
C1245       C  0.93203015  0.74071032  0.08991910    -0.22100
C1246       C  0.00067450  0.75576641  0.89609223    -0.17400
C1247       C  0.90322306  0.75589567  0.99399614    -0.17400
C1248       C  0.00052650  0.75579614  0.09124459    -0.17400
C1249       C  0.09881041  0.75776956  0.99351454    -0.17400
H1250       H  0.92830455  0.78000839  0.86898280     0.15500
H1251       H  0.87598008  0.78041380  0.92167084     0.15500
H1252       H  0.12560924  0.77786531  0.06883152     0.15500
H1253       H  0.07299313  0.77774023  0.11955092     0.15500
H1254       H  0.07483693  0.74114758  0.86680037     0.13800
H1255       H  0.12737887  0.74484060  0.91745439     0.13800
H1256       H  0.87524478  0.73337473  0.06678482     0.13800
H1257       H  0.92780314  0.73331155  0.11929767     0.13800
H1258       H  0.97814169  0.74106695  0.97120700     0.27000
H1259       H  0.02320735  0.74457519  0.01566260     0.27000
N1260       N  0.53974215  0.45836849  0.74467147    -0.35800
N1261       N  0.54047442  0.54128424  0.74215781    -0.56300
N1262       N  0.45828986  0.54179730  0.74604769    -0.35700
N1263       N  0.45777843  0.45874764  0.74356714    -0.56300
C1264       C  0.57685849  0.46519071  0.73813639     0.27800
C1265       C  0.53335520  0.42118351  0.73771009     0.27800
C1266       C  0.46532274  0.57850451  0.73754025     0.27800
C1267       C  0.42136579  0.53525488  0.73844784     0.27800
C1268       C  0.57750938  0.53485609  0.74885851     0.36500
C1269       C  0.53476447  0.57854625  0.74835003     0.36500
C1270       C  0.46317158  0.42099492  0.74783425     0.36500
C1271       C  0.42039018  0.46529685  0.74859132     0.36500
C1272       C  0.59442539  0.43208387  0.72723442    -0.21000
C1273       C  0.56746082  0.40439767  0.72745186    -0.21000
C1274       C  0.43243256  0.59546510  0.72462685    -0.21000
C1275       C  0.40474022  0.56824371  0.72523137    -0.21000
C1276       C  0.59530791  0.56809858  0.75943927    -0.22100
C1277       C  0.56823867  0.59577854  0.75908496    -0.22100
C1278       C  0.42863433  0.40367995  0.75492449    -0.22100
C1279       C  0.40194970  0.43160719  0.75601956    -0.22100
C1280       C  0.59601079  0.49991579  0.74355381    -0.17400
C1281       C  0.49825478  0.40179265  0.74265512    -0.17400
C1282       C  0.40195061  0.50063697  0.74387832    -0.17400
C1283       C  0.50016617  0.59757436  0.74259904    -0.17400
H1284       H  0.62389293  0.42793232  0.72027398     0.15500
H1285       H  0.57369049  0.37527153  0.72121358     0.15500
H1286       H  0.42872305  0.62444339  0.71551836     0.15500
H1287       H  0.37570091  0.57230522  0.71655863     0.15500
H1288       H  0.62475060  0.57207441  0.76665908     0.13800
H1289       H  0.57275914  0.62520529  0.76600674     0.13800
H1290       H  0.42226395  0.37406197  0.75831874     0.07600
H1291       H  0.37213544  0.42722114  0.76107938     0.13800
H1292       H  0.52100218  0.47714878  0.75703331     0.27000
H1293       H  0.47653340  0.52336237  0.75982374     0.27000
N1294       N  0.45929676  0.54320931  0.25293758    -0.35800
N1295       N  0.45914184  0.46085775  0.24861650    -0.56300
N1296       N  0.54188672  0.46060209  0.25103019    -0.35700
N1297       N  0.54201606  0.54309856  0.25013744    -0.56300
C1298       C  0.42205317  0.53706498  0.24604769     0.27800
C1299       C  0.46620140  0.58053366  0.24732068     0.27800
C1300       C  0.53504212  0.42408077  0.24192328     0.27800
C1301       C  0.57868572  0.46759342  0.24315864     0.27800
C1302       C  0.42163100  0.46650421  0.25399970     0.36500
C1303       C  0.46534237  0.42323490  0.25249482     0.36500
C1304       C  0.53608716  0.58019754  0.25719851     0.36500
C1305       C  0.57925569  0.53676019  0.25612331     0.36500
C1306       C  0.40517400  0.57143758  0.23690513    -0.21000
C1307       C  0.43293589  0.59844832  0.23720488    -0.21000
C1308       C  0.56788686  0.40770244  0.22824125    -0.21000
C1309       C  0.59538014  0.43511356  0.22902203    -0.21000
C1310       C  0.40411690  0.43195799  0.26067733    -0.22100
C1311       C  0.43170386  0.40493124  0.26031887    -0.22100
C1312       C  0.56965736  0.59738476  0.26776601    -0.22100
C1313       C  0.59694341  0.56991362  0.26711619    -0.22100
C1314       C  0.40265702  0.50182453  0.24995390    -0.17400
C1315       C  0.50128743  0.59933451  0.25241478    -0.17400
C1316       C  0.59799843  0.50203268  0.24969147    -0.17400
C1317       C  0.50040697  0.40465872  0.24689781    -0.17400
H1318       H  0.37589275  0.57750809  0.23102882     0.15500
H1319       H  0.42874097  0.62808969  0.23093291     0.15500
H1320       H  0.57169580  0.37898949  0.21848832     0.15500
H1321       H  0.62436201  0.43148740  0.22002822     0.15500
H1322       H  0.37456451  0.42584085  0.26485521     0.13800
H1323       H  0.42711826  0.37504942  0.26488002     0.13800
H1324       H  0.57410476  0.62667579  0.27528785     0.13800
H1325       H  0.62645748  0.57398971  0.27396311     0.13800
H1326       H  0.47812160  0.52387538  0.26438795     0.27000
H1327       H  0.52364861  0.47845017  0.26546892     0.27000
N1328       N  0.74250931  0.45902153  0.45166747    -0.35800
N1329       N  0.74518480  0.45899197  0.53452104    -0.56300
N1330       N  0.73971220  0.54131838  0.53458612    -0.35700
N1331       N  0.74440058  0.54144001  0.45186947    -0.56300
C1332       C  0.75127859  0.42237482  0.45850529     0.27800
C1333       C  0.75004679  0.46596760  0.41475370     0.27800
C1334       C  0.74685578  0.53460395  0.57164812     0.27800
C1335       C  0.74746190  0.57824769  0.52790046     0.27800
C1336       C  0.74037490  0.42155925  0.52824733     0.36500
C1337       C  0.73822933  0.46468097  0.57172814     0.36500
C1338       C  0.73847009  0.53547074  0.41452981     0.36500
C1339       C  0.73805080  0.57867091  0.45796631     0.36500
C1340       C  0.76425429  0.40580931  0.42545967    -0.21000
C1341       C  0.76344473  0.43325383  0.39789967    -0.21000
C1342       C  0.75887702  0.56773349  0.58872476    -0.21000
C1343       C  0.75932445  0.59517615  0.56119024    -0.21000
C1344       C  0.73036534  0.40351068  0.56158788    -0.22100
C1345       C  0.72899879  0.43075579  0.58904931    -0.22100
C1346       C  0.72825124  0.56900623  0.39696836    -0.22100
C1347       C  0.72805134  0.59631079  0.42440395    -0.22100
C1348       C  0.74649307  0.40302110  0.49330892    -0.17400
C1349       C  0.74417230  0.50069519  0.39558514    -0.17400
C1350       C  0.74298135  0.59747111  0.49294575    -0.17400
C1351       C  0.74200203  0.49967654  0.59076869    -0.17400
H1352       H  0.77354062  0.37694471  0.42154639     0.15500
H1353       H  0.77204366  0.42951408  0.36880372     0.15500
H1354       H  0.76695305  0.57174621  0.61794380     0.15500
H1355       H  0.76775840  0.62426814  0.56530118     0.15500
H1356       H  0.72446112  0.37379542  0.56578129     0.13800
H1357       H  0.72189136  0.42602501  0.61841593     0.13800
H1358       H  0.72159820  0.57345164  0.36743858     0.13800
H1359       H  0.72116862  0.62579604  0.42006228     0.13800
H1360       H  0.72868273  0.47711926  0.47011851     0.27000
H1361       H  0.72690438  0.52273255  0.51586020     0.27000
N1362       N  0.54214325  0.74957799  0.45348202    -0.35800
N1363       N  0.45904896  0.74768784  0.45306002    -0.56300
N1364       N  0.45924909  0.74898700  0.53518209    -0.35700
N1365       N  0.54240382  0.74542254  0.53567383    -0.56300
C1366       C  0.53536700  0.74205214  0.41658014     0.27800
C1367       C  0.57900804  0.74154369  0.46016483     0.27800
C1368       C  0.42176289  0.74344470  0.52899305     0.27800
C1369       C  0.46599978  0.74274086  0.57241687     0.27800
C1370       C  0.46540580  0.75205808  0.41554001     0.36500
C1371       C  0.42141823  0.75241959  0.45855146     0.36500
C1372       C  0.57969541  0.75155352  0.52977099     0.36500
C1373       C  0.53618215  0.75158555  0.57286578     0.36500
C1374       C  0.56831845  0.72924486  0.39968767    -0.21000
C1375       C  0.59576953  0.72891332  0.42711659    -0.21000
C1376       C  0.40466505  0.73443626  0.56326801    -0.21000
C1377       C  0.43245298  0.73344241  0.59021031    -0.21000
C1378       C  0.43169623  0.75937706  0.39708671    -0.22100
C1379       C  0.40394675  0.75900123  0.42395700    -0.22100
C1380       C  0.59718113  0.76159231  0.56333210    -0.22100
C1381       C  0.56967049  0.76159244  0.59059581    -0.22100
C1382       C  0.50073978  0.74759898  0.39718517    -0.17400
C1383       C  0.59844341  0.74674200  0.49480151    -0.17400
C1384       C  0.50106392  0.74708783  0.59146949    -0.17400
C1385       C  0.40237461  0.74828438  0.49383203    -0.17400
H1386       H  0.57223017  0.72073042  0.37059555     0.15500
H1387       H  0.62477466  0.72013918  0.42311345     0.15500
H1388       H  0.37523092  0.72955837  0.56939449     0.15500
H1389       H  0.42807360  0.72704373  0.61979824     0.15500
H1390       H  0.42716558  0.76408392  0.36721437     0.13800
H1391       H  0.37432049  0.76262650  0.41775798     0.13800
H1392       H  0.62663128  0.76845868  0.56778401     0.13800
H1393       H  0.57389707  0.76850832  0.62007397     0.13800
H1394       H  0.52383282  0.76323724  0.47183745     0.27000
H1395       H  0.47846423  0.76010951  0.51611393     0.27000
N1396       N  0.25063699  0.54101610  0.45139232    -0.35800
N1397       N  0.25463817  0.45837559  0.45077807    -0.56300
N1398       N  0.25316353  0.45825086  0.53351032    -0.35700
N1399       N  0.25441712  0.54062859  0.53399022    -0.56300
C1400       C  0.25828657  0.53444833  0.41447219     0.27800
C1401       C  0.25823736  0.57791971  0.45810332     0.27800
C1402       C  0.25932774  0.42107599  0.52650036     0.27800
C1403       C  0.26011044  0.46434277  0.57075735     0.27800
C1404       C  0.24762631  0.46481800  0.41371427     0.36500
C1405       C  0.24814494  0.42115165  0.45679857     0.36500
C1406       C  0.25001276  0.57825029  0.52816921     0.36500
C1407       C  0.25089598  0.53473036  0.57169695     0.36500
C1408       C  0.27082059  0.56757782  0.39760757    -0.21000
C1409       C  0.27070946  0.59496275  0.42506256    -0.21000
C1410       C  0.27027640  0.40328556  0.55961047    -0.21000
C1411       C  0.27032869  0.43018610  0.58744769    -0.21000
C1412       C  0.23670905  0.43157174  0.39617130    -0.22100
C1413       C  0.23704443  0.40394949  0.42342187    -0.22100
C1414       C  0.24405308  0.59633714  0.56228966    -0.22100
C1415       C  0.24528780  0.56915041  0.58973194    -0.22100
C1416       C  0.25260031  0.49989395  0.39508878    -0.17400
C1417       C  0.25339088  0.59703357  0.49289911    -0.17400
C1418       C  0.25505549  0.49923138  0.59036205    -0.17400
C1419       C  0.25334574  0.40212635  0.49165790    -0.17400
H1420       H  0.27931754  0.57168525  0.36851673     0.15500
H1421       H  0.27920632  0.62408282  0.42112747     0.15500
H1422       H  0.27710901  0.37374422  0.56364006     0.15500
H1423       H  0.27683096  0.42420446  0.61663152     0.15500
H1424       H  0.22906510  0.42757612  0.36683493     0.13800
H1425       H  0.22967390  0.37459820  0.41910685     0.13800
H1426       H  0.23977626  0.62617081  0.56730340     0.13800
H1427       H  0.24305049  0.57500048  0.61957412     0.13800
H1428       H  0.23722849  0.52249812  0.46980550     0.27000
H1429       H  0.24084919  0.47728060  0.51491392     0.27000
N1430       N  0.46019984  0.25292890  0.53348865    -0.35800
N1431       N  0.46007178  0.26066395  0.45122012    -0.56300
N1432       N  0.54316635  0.26373841  0.45161267    -0.35700
N1433       N  0.54307908  0.25661955  0.53416007    -0.56300
C1434       C  0.42275526  0.25881246  0.52735004     0.27800
C1435       C  0.46643976  0.25744281  0.57108969     0.27800
C1436       C  0.53680006  0.25881910  0.41407162     0.27800
C1437       C  0.58051199  0.25728827  0.45782301     0.27800
C1438       C  0.42214899  0.25940872  0.45649620     0.36500
C1439       C  0.46587150  0.26286217  0.41342632     0.36500
C1440       C  0.53735407  0.25445990  0.57197892     0.36500
C1441       C  0.58097267  0.25781258  0.52878802     0.36500
C1442       C  0.40521251  0.26691825  0.56141346    -0.21000
C1443       C  0.43257514  0.26614231  0.58880014    -0.21000
C1444       C  0.57057138  0.24972162  0.39640108    -0.21000
C1445       C  0.59793317  0.24880083  0.42378177    -0.21000
C1446       C  0.40396546  0.26088471  0.42178080    -0.22100
C1447       C  0.43138838  0.26403379  0.39483596    -0.22100
C1448       C  0.57188291  0.25389660  0.59053879    -0.22100
C1449       C  0.59922330  0.25699246  0.56349080    -0.22100
C1450       C  0.40351865  0.25777136  0.49205590    -0.17400
C1451       C  0.50162741  0.25458423  0.59034432    -0.17400
C1452       C  0.59964126  0.25774253  0.49320325    -0.17400
C1453       C  0.50149534  0.26119604  0.39494573    -0.17400
H1454       H  0.37583019  0.27390508  0.56609364     0.15500
H1455       H  0.42797287  0.27242144  0.61835278     0.15500
H1456       H  0.57511433  0.24311630  0.36691772     0.15500
H1457       H  0.62718503  0.24133096  0.41907345     0.15500
H1458       H  0.37408300  0.25972195  0.41575484     0.13800
H1459       H  0.42604808  0.26627384  0.36483143     0.13800
H1460       H  0.57740475  0.25173431  0.62050050     0.13800
H1461       H  0.62916868  0.25823863  0.56930295     0.13800
H1462       H  0.47970745  0.24350143  0.51375609     0.27000
H1463       H  0.52369635  0.27321950  0.47135427     0.27000
O1464       O  0.72748123  0.33867658  0.26611443    -0.77600
C1465       C  0.64601574  0.25288082  0.24368886     0.83400
O1466       O  0.77311773  0.23061418  0.33217294    -0.78800
O1467       O  0.72948251  0.16412897  0.22193698    -0.80200
O1468       O  0.77403408  0.27427315  0.15533296    -0.80000
O1469       O  0.77226884  0.34075729  0.22189956    -0.78700
Zn1470     Zn  0.71859605  0.28399916  0.27578852     1.55700
O1471       O  0.73015913  0.22907252  0.15585953    -0.80100
Cd1472     Cd  0.78310255  0.28483860  0.21159211     1.59700
Cd1473     Cd  0.78333438  0.22045215  0.27626234     1.59600
O1474       O  0.83931758  0.27432792  0.22100730    -0.80000
O1475       O  0.75059445  0.25284270  0.24425501    -1.90600
Cd1476     Cd  0.71889567  0.22013868  0.21181386     1.59900
O1477       O  0.83937362  0.22951648  0.26550801    -0.80000
O1478       O  0.66262214  0.23053690  0.22097755    -0.78700
C1479       C  0.75015785  0.25276083  0.34866098     0.83900
C1480       C  0.74932877  0.35698861  0.24430427     0.83500
O1481       O  0.66404162  0.27434994  0.26605092    -0.77600
C1482       C  0.75254167  0.25105183  0.13836158     0.84300
O1483       O  0.72798305  0.27448676  0.33057338    -0.77700
C1484       C  0.85642982  0.25137881  0.24272646     0.84500
C1485       C  0.75222587  0.14698393  0.24389285     0.84800
O1486       O  0.77415874  0.16432026  0.26638061    -0.80100
O1487       O  0.72948293  0.66611788  0.26589636    -0.77600
C1488       C  0.75256078  0.75133366  0.34790477     0.83400
O1489       O  0.66332423  0.77406385  0.22094097    -0.78800
O1490       O  0.77537956  0.84053902  0.26474284    -0.80200
O1491       O  0.83990409  0.72997041  0.21976218    -0.80000
O1492       O  0.77339292  0.66329437  0.22089423    -0.78700
Zn1493     Zn  0.72070156  0.72076385  0.27513428     1.55700
O1494       O  0.84046642  0.77537589  0.26355310    -0.80100
Cd1495     Cd  0.78381761  0.71955572  0.21076468     1.59700
Cd1496     Cd  0.71957794  0.78462545  0.21084616     1.59600
O1497       O  0.77417943  0.73018099  0.15476263    -0.80000
O1498       O  0.75190308  0.75211996  0.24337965    -1.90600
Cd1499     Cd  0.78477085  0.78449731  0.27542342     1.59900
O1500       O  0.73032883  0.77555795  0.15465176    -0.80000
O1501       O  0.77555028  0.77401752  0.33207792    -0.78700
C1502       C  0.64764900  0.75169687  0.24432468     0.83900
C1503       C  0.75076581  0.64752692  0.24391440     0.83500
O1504       O  0.73055504  0.73004123  0.32937654    -0.77600
C1505       C  0.85719591  0.75311690  0.24100104     0.84300
O1506       O  0.66626382  0.73043207  0.26639646    -0.77700
C1507       C  0.75265225  0.75323669  0.13762280     0.84500
C1508       C  0.75313589  0.85766291  0.24235159     0.84800
O1509       O  0.73008344  0.84066683  0.22072762    -0.80100
O1510       O  0.33912915  0.72845399  0.26653598    -0.77600
C1511       C  0.25380931  0.74957176  0.34859371     0.83400
O1512       O  0.22974594  0.66243603  0.22149152    -0.78800
O1513       O  0.16422093  0.77403262  0.26687637    -0.80200
O1514       O  0.27293481  0.83855982  0.21926569    -0.80000
O1515       O  0.34089055  0.77276515  0.22175165    -0.78700
Zn1516     Zn  0.28458316  0.71861463  0.27537910     1.55700
O1517       O  0.22987017  0.83866777  0.26538284    -0.80100
Cd1518     Cd  0.28458105  0.78240262  0.21078590     1.59700
Cd1519     Cd  0.21939758  0.71867768  0.21175882     1.59600
O1520       O  0.27384969  0.77217546  0.15460800    -0.80000
O1521       O  0.25276944  0.75022629  0.24396139    -1.90600
Cd1522     Cd  0.22070896  0.78277561  0.27652815     1.59900
O1523       O  0.22745658  0.72946571  0.15535637    -0.80000
O1524       O  0.23158127  0.77281771  0.33257714    -0.78700
C1525       C  0.25324721  0.64618638  0.24331919     0.83900
C1526       C  0.35731648  0.75040404  0.24475546     0.83500
O1527       O  0.27507882  0.72729559  0.33026596    -0.77600
C1528       C  0.25068534  0.85566826  0.24162065     0.84300
O1529       O  0.27556851  0.66419986  0.26482292    -0.77700
C1530       C  0.24998437  0.75123434  0.13784002     0.84500
C1531       C  0.14663370  0.75249040  0.24417740     0.84800
O1532       O  0.16357505  0.72975408  0.22215567    -0.80100
O1533       O  0.22868497  0.83658861  0.76506538    -0.77600
C1534       C  0.14452459  0.75222770  0.74391049     0.83400
O1535       O  0.27034290  0.72615118  0.83180847    -0.78800
O1536       O  0.22656981  0.66192438  0.71967281    -0.80200
O1537       O  0.27398541  0.76991220  0.65472449    -0.80000
O1538       O  0.27185803  0.83832496  0.71920388    -0.78700
Zn1539     Zn  0.21801793  0.78223904  0.77497087     1.55700
O1540       O  0.22740507  0.72740838  0.65463232    -0.80100
Cd1541     Cd  0.28189931  0.78181618  0.71064205     1.59700
Cd1542     Cd  0.28095948  0.71700227  0.77547932     1.59600
O1543       O  0.33756687  0.77121304  0.72090573    -0.80000
O1544       O  0.24897979  0.75023878  0.74341502    -1.90600
Cd1545     Cd  0.21656109  0.71827533  0.71080970     1.59900
O1546       O  0.33719145  0.72628757  0.76522838    -0.80000
O1547       O  0.16070131  0.72935443  0.72138965    -0.78700
C1548       C  0.24822642  0.74936332  0.84794904     0.83900
C1549       C  0.24987590  0.85462231  0.74242257     0.83500
O1550       O  0.16298182  0.77402191  0.76562903    -0.77600
C1551       C  0.25144746  0.74792796  0.63761500     0.84300
O1552       O  0.22732150  0.77216545  0.82970634    -0.77700
C1553       C  0.35457474  0.74829767  0.74272852     0.84500
C1554       C  0.24940573  0.64430914  0.74112978     0.84800
O1555       O  0.27140496  0.66115613  0.76396255    -0.80100
O1556       O  0.27331566  0.27063798  0.65604786    -0.77600
C1557       C  0.25117921  0.35450929  0.74067445     0.83400
O1558       O  0.33925102  0.22863207  0.76606618    -0.78800
O1559       O  0.22866850  0.27251719  0.83086139    -0.80200
O1560       O  0.16174904  0.22639100  0.72221803    -0.80000
O1561       O  0.22795393  0.22692335  0.65403376    -0.78700
Zn1562     Zn  0.28233067  0.28121606  0.71049179     1.55700
O1563       O  0.16236998  0.27123749  0.76652477    -0.80100
Cd1564     Cd  0.21790858  0.21714391  0.71068364     1.59700
Cd1565     Cd  0.28306734  0.21752450  0.77526488     1.59600
O1566       O  0.22760746  0.16111145  0.72196104    -0.80000
O1567       O  0.25084994  0.24983470  0.74234776    -1.90600
Cd1568     Cd  0.21864424  0.28227017  0.77472525     1.59900
O1569       O  0.27308375  0.16123984  0.76576753    -0.80000
O1570       O  0.22865801  0.33825480  0.76353105    -0.78700
C1571       C  0.35517719  0.25110385  0.74297479     0.83900
C1572       C  0.25128441  0.24901045  0.63784356     0.83500
O1573       O  0.27293009  0.33613253  0.71888983    -0.77600
C1574       C  0.14494822  0.24829049  0.74515347     0.84300
O1575       O  0.33682294  0.27218062  0.72047739    -0.77700
C1576       C  0.24995670  0.14407428  0.74435366     0.84500
C1577       C  0.24970856  0.24909574  0.84811739     0.84800
O1578       O  0.27176902  0.22645263  0.83122627    -0.80100
O1579       O  0.72752204  0.27243997  0.65667678    -0.77600
C1580       C  0.64447098  0.25016888  0.74239038     0.83400
O1581       O  0.77004361  0.33818420  0.76620585    -0.78800
O1582       O  0.72769124  0.22601293  0.83169249    -0.80200
O1583       O  0.77252397  0.16132920  0.72092441    -0.80000
O1584       O  0.77323938  0.22912495  0.65472943    -0.78700
Zn1585     Zn  0.71737735  0.28122898  0.71125236     1.55700
O1586       O  0.72824921  0.16099231  0.76586693    -0.80100
Cd1587     Cd  0.78192356  0.21770875  0.71102173     1.59700
Cd1588     Cd  0.78108248  0.28207351  0.77584531     1.59600
O1589       O  0.83772490  0.22690741  0.72274199    -0.80000
O1590       O  0.74894374  0.24985282  0.74302804    -1.90600
Cd1591     Cd  0.71702745  0.21699938  0.77541893     1.59900
O1592       O  0.83734611  0.27210592  0.76657285    -0.80000
O1593       O  0.66077692  0.22739579  0.76506365    -0.78700
C1594       C  0.74747244  0.35406995  0.74318400     0.83900
C1595       C  0.75032204  0.25159478  0.63853690     0.83500
O1596       O  0.66277901  0.27185626  0.72042926    -0.77600
C1597       C  0.75094929  0.14405639  0.74385425     0.84300
O1598       O  0.72627572  0.33570308  0.72091039    -0.77700
C1599       C  0.85476293  0.24910996  0.74520449     0.84500
C1600       C  0.75030653  0.24794016  0.84888165     0.84800
O1601       O  0.77193087  0.27097161  0.83187161    -0.80100
O1602       O  0.83604344  0.77176140  0.76550121    -0.77600
C1603       C  0.75117569  0.85470911  0.74371046     0.83400
O1604       O  0.72798834  0.72785432  0.83231885    -0.78800
O1605       O  0.66178821  0.77235126  0.71997160    -0.80200
O1606       O  0.77095597  0.72539475  0.65520959    -0.80000
O1607       O  0.83841222  0.72709581  0.72118100    -0.78700
Zn1608     Zn  0.78172315  0.78149639  0.77488364     1.55700
O1609       O  0.72820023  0.77185092  0.65468511    -0.80100
Cd1610     Cd  0.78203483  0.71670932  0.71149452     1.59700
Cd1611     Cd  0.71735854  0.71788217  0.77605968     1.59600
O1612       O  0.77132514  0.66066526  0.72188061    -0.80000
O1613       O  0.75011856  0.74999129  0.74357957    -1.90600
Cd1614     Cd  0.71811095  0.78262176  0.71073283     1.59900
O1615       O  0.72543826  0.66138170  0.76514755    -0.80000
O1616       O  0.72836230  0.83893861  0.72089563    -0.78700
C1617       C  0.75067473  0.75082756  0.84804614     0.83900
C1618       C  0.85437436  0.75001074  0.74377416     0.83500
O1619       O  0.77285671  0.83612111  0.76540069    -0.77600
C1620       C  0.74922358  0.74814162  0.63784517     0.84300
O1621       O  0.77229675  0.77253991  0.82945272    -0.77700
C1622       C  0.74776474  0.64389295  0.74315582     0.84500
C1623       C  0.64454681  0.75036484  0.74256880     0.84800
O1624       O  0.66148315  0.72878597  0.76577557    -0.80100
loop_ 
_geom_bond_atom_site_label_1 
_geom_bond_atom_site_label_2 
_geom_bond_distance 
_geom_bond_site_symmetry_2 
_ccdc_geom_bond_type 
O1           C17   1.270       .  A
O1           Zn7   1.993       .  S
C2           O18   1.270       .  A
C2           O15   1.273       .  A
C2          C845   1.454       .  S
O3           C16   1.272       .  A
O3          Cd10   2.056       .  S
O4           C22   1.271       .  A
O4          Cd13   2.052       .  S
O5           C19   1.272       .  A
O5           Cd9   2.053       .  S
O6           C17   1.274       .  A
O6           Cd9   2.051       .  S
Zn7          O18   1.989       .  S
Zn7          O20   1.980       .  S
Zn7          O12   1.936       .  S
O8           C19   1.272       .  A
O8          Cd13   2.048       .  S
Cd9          O11   2.049       .  S
Cd9          O12   1.983       .  S
Cd10         O14   2.051       .  S
Cd10         O23   2.047       .  S
Cd10         O12   1.986       .  S
O11          C21   1.272       .  A
O12         Cd13   1.983       .  S
Cd13         O15   2.047       .  S
O14          C21   1.272       .  A
C16          O20   1.268       .  A
C16         C504   1.443       .  S
C17         C569   1.456       .  S
C19          C44   1.456       .  S
C21         C390   1.456       .  S
C22          O23   1.271       .  A
C22         C665   1.456       .  S
O24          C40   1.277   1_655  A
O24         Zn30   2.038       .  S
C25          O41   1.275       .  A
C25          O38   1.269       .  A
C25        C1484   1.444       .  S
O26          C39   1.275   1_455  A
O26         Cd33   2.075       .  S
O27          C45   1.270   1_655  A
O27         Cd36   2.053       .  S
O28          C42   1.275       .  A
O28         Cd32   2.076       .  S
O29          C40   1.275       .  A
O29         Cd32   2.077       .  S
Zn30         O41   2.018       .  S
Zn30         O43   2.036       .  S
Zn30         O35   1.946   1_655  S
O31          C42   1.270   1_655  A
O31         Cd36   2.055       .  S
Cd32         O34   2.048       .  S
Cd32         O35   1.997       .  S
Cd33         O37   2.058       .  S
Cd33         O46   2.081       .  S
Cd33         O35   2.000       .  S
O34          C44   1.273       .  A
O35         Cd36   1.997   1_455  S
Cd36         O38   2.033       .  S
O37          C44   1.274       .  A
C39          O43   1.276       .  A
C39        C1181   1.493       .  S
C40        C1079   1.495       .  S
C42          C48   1.467       .  S
C45          O46   1.274       .  A
C45         C108   1.458       .  S
O47          C63   1.276   1_655  A
O47         Zn53   2.055       .  S
C48          O64   1.278   1_455  A
C48          O61   1.273       .  A
O49          C62   1.273       .  A
O49         Cd56   2.061       .  S
O50          C68   1.278   1_455  A
O50         Cd59   2.097       .  S
O51          C65   1.273       .  A
O51         Cd55   2.056       .  S
O52          C63   1.274       .  A
O52         Cd55   2.087       .  S
Zn53         O64   2.036       .  S
Zn53         O66   2.014       .  S
Zn53         O58   1.953   1_655  S
O54          C65   1.276       .  A
O54         Cd59   2.071       .  S
Cd55         O57   2.072       .  S
Cd55         O58   2.005       .  S
Cd56         O60   2.066       .  S
Cd56         O69   2.102       .  S
Cd56         O58   2.007   1_655  S
O57          C67   1.277   1_455  A
O58         Cd59   2.005       .  S
Cd59         O61   2.055       .  S
O60          C67   1.275       .  A
C62          O66   1.273       .  A
C62         C801   1.455       .  S
C63        C1011   1.514       .  S
C65         C847   1.463       .  S
C67          C90   1.466       .  S
C68          O69   1.277       .  A
C68         C873   1.506   1_655  S
O70          C86   1.276       .  A
O70         Zn76   2.023       .  S
C71          O87   1.276   1_655  A
C71          O84   1.274       .  A
C71        C1179   1.489       .  S
O72          C85   1.274   1_655  A
O72         Cd79   2.066       .  S
O73          C91   1.273       .  A
O73         Cd82   2.050       .  S
O74          C88   1.271   1_455  A
O74         Cd78   2.057       .  S
O75          C86   1.270       .  A
O75         Cd78   2.037       .  S
Zn76         O87   2.036       .  S
Zn76         O89   2.034       .  S
Zn76         O81   1.948       .  S
O77          C88   1.273       .  A
O77         Cd82   2.070       .  S
Cd78         O80   2.057       .  S
Cd78         O81   1.993       .  S
Cd79         O83   2.071       .  S
Cd79         O92   2.054       .  S
Cd79         O81   1.996   1_655  S
O80          C90   1.271   1_455  A
O81         Cd82   1.998   1_455  S
Cd82         O84   2.068       .  S
O83          C90   1.273       .  A
C85          O89   1.276       .  A
C85        C1110   1.493       .  S
C86        C1574   1.447       .  S
C88         C186   1.455       .  S
C91          O92   1.274       .  A
C91        C1599   1.455       .  S
O93         C109   1.278       .  A
O93         Zn99   2.037       .  S
C94         O110   1.278       .  A
C94         O107   1.276   1_655  A
C94         C942   1.505       .  S
O95         C108   1.274       .  A
O95        Cd102   2.066       .  S
O96         C114   1.274       .  A
O96        Cd105   2.067       .  S
O97         C111   1.276   1_655  A
O97        Cd101   2.067       .  S
O98         C109   1.273       .  A
O98        Cd101   2.062       .  S
Zn99        O110   2.058       .  S
Zn99        O112   2.024       .  S
Zn99        O104   1.957   1_655  S
O100        C111   1.274       .  A
O100       Cd105   2.063       .  S
Cd101       O103   2.097       .  S
Cd101       O104   2.005   1_655  S
Cd102       O106   2.099       .  S
Cd102       O115   2.064       .  S
Cd102       O104   2.008       .  S
O103        C113   1.277   1_655  A
O104       Cd105   2.011       .  S
Cd105       O107   2.093       .  S
O106        C113   1.277       .  A
C108        O112   1.275   1_455  A
C109        C525   1.470       .  S
C111        C134   1.463       .  S
C113       C1010   1.510       .  S
C114        O115   1.273       .  A
C114        C573   1.454       .  S
O116        C132   1.276   1_655  A
O116       Zn122   2.036       .  S
C117        O133   1.274       .  A
C117        O130   1.268       .  A
C117       C1505   1.439       .  S
O118        C131   1.275   1_455  A
O118       Cd125   2.071       .  S
O119        C137   1.269       .  A
O119       Cd128   2.055       .  S
O120        C134   1.274       .  A
O120       Cd124   2.073       .  S
O121        C132   1.275       .  A
O121       Cd124   2.079       .  S
Zn122       O133   2.010       .  S
Zn122       O135   2.033       .  S
Zn122       O127   1.948   1_655  S
O123        C134   1.270   1_655  A
O123       Cd128   2.045       .  S
Cd124       O126   2.049       .  S
Cd124       O127   1.996       .  S
Cd125       O129   2.066       .  S
Cd125       O138   2.072       .  S
Cd125       O127   1.997       .  S
O126        C136   1.274       .  A
O127       Cd128   1.992   1_455  S
Cd128       O130   2.024       .  S
O129        C136   1.276       .  A
C131        O135   1.276       .  A
C131       C1077   1.496       .  S
C132       C1248   1.493       .  S
C136       C1531   1.458       .  S
C137        O138   1.272   1_655  A
C137        C154   1.456       .  S
O139        C155   1.276       .  A
O139       Zn145   2.035       .  S
C140        O156   1.278   1_455  A
C140        O153   1.276       .  A
C140        C875   1.507   1_455  S
O141        C154   1.274   1_455  A
O141       Cd148   2.063       .  S
O142        C160   1.277       .  A
O142       Cd151   2.075       .  S
O143        C157   1.276       .  A
O143       Cd147   2.077       .  S
O144        C155   1.270       .  A
O144       Cd147   2.046       .  S
Zn145       O156   2.062       .  S
Zn145       O158   2.023       .  S
Zn145       O150   1.956       .  S
O146        C157   1.274   1_455  A
O146       Cd151   2.066       .  S
Cd147       O149   2.090       .  S
Cd147       O150   2.005       .  S
Cd148       O152   2.087       .  S
Cd148       O161   2.052       .  S
Cd148       O150   2.005   1_455  S
O149        C159   1.275   1_655  A
O150       Cd151   2.003   1_655  S
Cd151       O153   2.093       .  S
O152        C159   1.274       .  A
C154        O158   1.275       .  A
C155        C780   1.454       .  S
C157        C183   1.458       .  S
C159       C1009   1.510       .  S
C160        O161   1.272       .  A
C160        C824   1.464       .  S
O162        C178   1.276   1_455  A
O162       Zn168   2.034       .  S
C163        O179   1.277       .  A
C163        O176   1.271       .  A
C163       C1534   1.458       .  S
O164        C177   1.276       .  A
O164       Cd171   2.080       .  S
O165        C183   1.270   1_455  A
O165       Cd174   2.057       .  S
O166        C180   1.274       .  A
O166       Cd170   2.076       .  S
O167        C178   1.276       .  A
O167       Cd170   2.079       .  S
Zn168       O179   2.029       .  S
Zn168       O181   2.032       .  S
Zn168       O173   1.948   1_455  S
O169        C180   1.272   1_455  A
O169       Cd174   2.057       .  S
Cd170       O172   2.049       .  S
Cd170       O173   2.001       .  S
Cd171       O175   2.058       .  S
Cd171       O184   2.076       .  S
Cd171       O173   2.002       .  S
O172        C182   1.272       .  A
O173       Cd174   1.993   1_655  S
Cd174       O176   2.035       .  S
O175        C182   1.273       .  A
C177        O181   1.275   1_655  A
C177       C1112   1.499   1_655  S
C178       C1246   1.494   1_655  S
C180        C205   1.468       .  S
C182       C1618   1.445       .  S
C183        O184   1.273       .  A
O185        C201   1.278       .  A
O185       Zn191   2.066       .  S
C186        O202   1.276       .  A
C186        O199   1.273   1_655  A
O187        C200   1.277       .  A
O187       Cd194   2.075       .  S
O188        C206   1.276   1_455  A
O188       Cd197   2.094       .  S
O189        C203   1.274       .  A
O189       Cd193   2.064       .  S
O190        C201   1.277   1_455  A
O190       Cd193   2.095       .  S
Zn191       O202   2.027       .  S
Zn191       O204   2.034       .  S
Zn191       O196   1.963       .  S
O192        C203   1.275       .  A
O192       Cd197   2.069       .  S
Cd193       O195   2.069       .  S
Cd193       O196   2.007   1_455  S
Cd194       O198   2.075       .  S
Cd194       O207   2.108       .  S
Cd194       O196   2.010       .  S
O195        C205   1.276   1_455  A
O196       Cd197   2.008   1_655  S
Cd197       O199   2.057       .  S
O198        C205   1.276       .  A
C200        O204   1.277       .  A
C200        C224   1.473       .  S
C201       C1008   1.513       .  S
C203        C458   1.466       .  S
C206        O207   1.278       .  A
C206        C940   1.506       .  S
O208        C224   1.273       .  A
O208       Zn214   2.017       .  S
C209        O225   1.272       .  A
C209        O222   1.273       .  A
C209       C1622   1.448       .  S
O210        C223   1.272       .  A
O210       Cd217   2.063       .  S
O211        C229   1.275       .  A
O211       Cd220   2.076       .  S
O212        C226   1.276       .  A
O212       Cd216   2.080       .  S
O213        C224   1.275       .  A
O213       Cd216   2.081       .  S
Zn214       O225   1.998       .  S
Zn214       O227   2.020       .  S
Zn214       O219   1.944       .  S
O215        C226   1.277       .  A
O215       Cd220   2.087       .  S
Cd216       O218   2.050       .  S
Cd216       O219   2.001       .  S
Cd217       O221   2.049       .  S
Cd217       O230   2.068       .  S
Cd217       O219   2.001       .  S
O218        C228   1.272       .  A
O219       Cd220   2.001       .  S
Cd220       O222   2.058       .  S
O221        C228   1.272       .  A
C223        O227   1.273       .  A
C223        C246   1.468       .  S
C226       C1351   1.492       .  S
C228       C1594   1.443       .  S
C229        O230   1.274       .  A
C229       C1280   1.485       .  S
O231        C247   1.276       .  A
O231       Zn237   2.023       .  S
C232        O248   1.278       .  A
C232        O245   1.277   1_556  A
C232        C977   1.510       .  S
O233        C246   1.275       .  A
O233       Cd240   2.065       .  S
O234        C252   1.277   1_554  A
O234       Cd243   2.071       .  S
O235        C249   1.276       .  A
O235       Cd239   2.067       .  S
O236        C247   1.274   1_554  A
O236       Cd239   2.061       .  S
Zn237       O248   2.068       .  S
Zn237       O250   2.026       .  S
Zn237       O242   1.959       .  S
O238        C249   1.275       .  A
O238       Cd243   2.069       .  S
Cd239       O241   2.100       .  S
Cd239       O242   2.006   1_554  S
Cd240       O244   2.099       .  S
Cd240       O253   2.071       .  S
Cd240       O242   2.012       .  S
O241        C251   1.277   1_554  A
O242       Cd243   2.008   1_556  S
Cd243       O245   2.100       .  S
O244        C251   1.277       .  A
C246        O250   1.277       .  A
C247        C272   1.465       .  S
C249        C527   1.465       .  S
C251        C941   1.505       .  S
C252        O253   1.275       .  A
C252        C298   1.468       .  S
O254        C270   1.276       .  A
O254       Zn260   2.022       .  S
C255        O271   1.276       .  A
C255        O268   1.273   1_556  A
C255       C1180   1.500       .  S
O256        C269   1.274   1_554  A
O256       Cd263   2.073       .  S
O257        C275   1.274       .  A
O257       Cd266   2.054       .  S
O258        C272   1.272       .  A
O258       Cd262   2.063       .  S
O259        C270   1.270       .  A
O259       Cd262   2.033       .  S
Zn260       O271   2.043       .  S
Zn260       O273   2.031       .  S
Zn260       O265   1.946       .  S
O261        C272   1.272   1_554  A
O261       Cd266   2.062       .  S
Cd262       O264   2.057       .  S
Cd262       O265   1.996       .  S
Cd263       O267   2.078       .  S
Cd263       O276   2.046       .  S
Cd263       O265   1.993   1_554  S
O264        C274   1.271       .  A
O265       Cd266   1.995   1_556  S
Cd266       O268   2.067       .  S
O267        C274   1.275   1_554  A
C269        O273   1.275       .  A
C269       C1214   1.489       .  S
C270       C1600   1.445       .  S
C274        C393   1.468       .  S
C275        O276   1.273       .  A
C275       C1482   1.455       .  S
O277        C293   1.276   1_554  A
O277       Zn283   2.038       .  S
C278        O294   1.274       .  A
C278        O291   1.269       .  A
C278       C1507   1.443       .  S
O279        C292   1.275       .  A
O279       Cd286   2.074       .  S
O280        C298   1.271   1_554  A
O280       Cd289   2.056       .  S
O281        C295   1.275       .  A
O281       Cd285   2.080       .  S
O282        C293   1.276       .  A
O282       Cd285   2.077       .  S
Zn283       O294   2.010       .  S
Zn283       O296   2.042       .  S
Zn283       O288   1.950   1_554  S
O284        C295   1.271   1_554  A
O284       Cd289   2.056       .  S
Cd285       O287   2.056       .  S
Cd285       O288   2.000       .  S
Cd286       O290   2.051       .  S
Cd286       O299   2.079       .  S
Cd286       O288   2.002       .  S
O287        C297   1.273       .  A
O288       Cd289   1.994   1_556  S
Cd289       O291   2.035       .  S
O290        C297   1.272       .  A
C292        O296   1.277   1_556  A
C292       C1247   1.491       .  S
C293       C1212   1.490       .  S
C295        C320   1.469       .  S
C297       C1617   1.445       .  S
C298        O299   1.275       .  A
O300        C316   1.278       .  A
O300       Zn306   2.064       .  S
C301        O317   1.275       .  A
C301        O314   1.274   1_556  A
C301        C341   1.456       .  S
O302        C315   1.275       .  A
O302       Cd309   2.068       .  S
O303        C321   1.277   1_554  A
O303       Cd312   2.101       .  S
O304        C318   1.275       .  A
O304       Cd308   2.074       .  S
O305        C316   1.278   1_554  A
O305       Cd308   2.103       .  S
Zn306       O317   2.021       .  S
Zn306       O319   2.027       .  S
Zn306       O311   1.961       .  S
O307        C318   1.277       .  A
O307       Cd312   2.074       .  S
Cd308       O310   2.075       .  S
Cd308       O311   2.010   1_554  S
Cd309       O313   2.069       .  S
Cd309       O322   2.099       .  S
Cd309       O311   2.011       .  S
O310        C320   1.277   1_554  A
O311       Cd312   2.008   1_556  S
Cd312       O314   2.065       .  S
O313        C320   1.275       .  A
C315        O319   1.276       .  A
C315        C416   1.470       .  S
C316        C974   1.510       .  S
C318        C548   1.469       .  S
C321        O322   1.277       .  A
C321        C906   1.505       .  S
O323        C339   1.276       .  A
O323       Zn329   2.025       .  S
C324        O340   1.275   1_556  A
C324        O337   1.275       .  A
C324       C1144   1.488       .  S
O325        C338   1.274       .  A
O325       Cd332   2.068       .  S
O326        C344   1.272       .  A
O326       Cd335   2.049       .  S
O327        C341   1.270   1_554  A
O327       Cd331   2.052       .  S
O328        C339   1.270       .  A
O328       Cd331   2.038       .  S
Zn329       O340   2.032       .  S
Zn329       O342   2.041       .  S
Zn329       O334   1.948   1_554  S
O330        C341   1.274       .  A
O330       Cd335   2.075       .  S
Cd331       O333   2.063       .  S
Cd331       O334   1.994   1_554  S
Cd332       O336   2.070       .  S
Cd332       O345   2.065       .  S
Cd332       O334   1.999       .  S
O333        C343   1.271   1_554  A
O334       Cd335   1.998       .  S
Cd335       O337   2.073       .  S
O336        C343   1.272       .  A
C338        O342   1.276   1_556  A
C338       C1249   1.501       .  S
C339       C1530   1.448       .  S
C343        C347   1.458       .  S
C344        O345   1.274       .  A
C344       C1548   1.448       .  S
O346        C362   1.276       .  A
O346       Zn352   2.030       .  S
C347        O363   1.275       .  A
C347        O360   1.274   1_556  A
O348        C361   1.278   1_554  A
O348       Cd355   2.105       .  S
O349        C367   1.274       .  A
O349       Cd358   2.066       .  S
O350        C364   1.277       .  A
O350       Cd354   2.100       .  S
O351        C362   1.276       .  A
O351       Cd354   2.065       .  S
Zn352       O363   2.025       .  S
Zn352       O365   2.063       .  S
Zn352       O357   1.966       .  S
O353        C364   1.277   1_554  A
O353       Cd358   2.103       .  S
Cd354       O356   2.070       .  S
Cd354       O357   2.007       .  S
Cd355       O359   2.084       .  S
Cd355       O368   2.078       .  S
Cd355       O357   2.011   1_554  S
O356        C366   1.274       .  A
O357       Cd358   2.012   1_556  S
Cd358       O360   2.067       .  S
O359        C366   1.277   1_554  A
C361        O365   1.278       .  A
C361        C975   1.510       .  S
C362        C454   1.469       .  S
C364        C943   1.507       .  S
C366        C370   1.461       .  S
C367        O368   1.276       .  A
C367        C571   1.457       .  S
O369        C385   1.271       .  A
O369       Zn375   1.994       .  S
C370        O386   1.271       .  A
C370        O383   1.273   1_556  A
O371        C384   1.272   1_554  A
O371       Cd378   2.069       .  S
O372        C390   1.273       .  A
O372       Cd381   2.049       .  S
O373        C387   1.276       .  A
O373       Cd377   2.080       .  S
O374        C385   1.273       .  A
O374       Cd377   2.052       .  S
Zn375       O386   2.013       .  S
Zn375       O388   2.009       .  S
Zn375       O380   1.944       .  S
O376        C387   1.275   1_554  A
O376       Cd381   2.072       .  S
Cd377       O379   2.079       .  S
Cd377       O380   1.997       .  S
Cd378       O382   2.073       .  S
Cd378       O391   2.052       .  S
Cd378       O380   1.997   1_554  S
O379        C389   1.275       .  A
O380       Cd381   1.997   1_556  S
Cd381       O383   2.075       .  S
O382        C389   1.275   1_554  A
C384        O388   1.271       .  A
C384        C412   1.458       .  S
C385       C1577   1.443       .  S
C387       C1178   1.487       .  S
C389       C1146   1.487       .  S
C390        O391   1.274       .  A
O392        C408   1.279       .  A
O392       Zn398   2.071       .  S
C393        O409   1.277       .  A
C393        O406   1.274   1_556  A
O394        C407   1.274       .  A
O394       Cd401   2.063       .  S
O395        C413   1.277   1_554  A
O395       Cd404   2.100       .  S
O396        C410   1.276       .  A
O396       Cd400   2.075       .  S
O397        C408   1.277   1_554  A
O397       Cd400   2.101       .  S
Zn398       O409   2.031       .  S
Zn398       O411   2.029       .  S
Zn398       O403   1.960       .  S
O399        C410   1.275       .  A
O399       Cd404   2.059       .  S
Cd400       O402   2.075       .  S
Cd400       O403   2.010   1_554  S
Cd401       O405   2.067       .  S
Cd401       O414   2.099       .  S
Cd401       O403   2.010       .  S
O402        C412   1.276   1_554  A
O403       Cd404   2.008   1_556  S
Cd404       O406   2.062       .  S
O405        C412   1.274       .  A
C407        O411   1.276       .  A
C407        C476   1.458       .  S
C408        C976   1.510       .  S
C410        C505   1.465       .  S
C413        O414   1.277       .  A
C413        C908   1.505       .  S
O415        C431   1.273       .  A
O415       Zn421   2.017       .  S
C416        O432   1.274       .  A
C416        O429   1.273       .  A
O417        C430   1.273       .  A
O417       Cd424   2.053       .  S
O418        C436   1.274       .  A
O418       Cd427   2.067       .  S
O419        C433   1.273       .  A
O419       Cd423   2.048       .  S
O420        C431   1.272       .  A
O420       Cd423   2.068       .  S
Zn421       O432   2.022       .  S
Zn421       O434   1.999       .  S
Zn421       O426   1.943       .  S
O422        C433   1.272       .  A
O422       Cd427   2.045       .  S
Cd423       O425   2.070       .  S
Cd423       O426   1.998       .  S
Cd424       O428   2.081       .  S
Cd424       O437   2.086       .  S
Cd424       O426   1.999       .  S
O425        C435   1.275       .  A
O426       Cd427   1.999       .  S
Cd427       O429   2.067       .  S
O428        C435   1.276       .  A
C430        O434   1.272       .  A
C430       C1623   1.445       .  S
C431        C591   1.468       .  S
C433       C1553   1.453       .  S
C435       C1384   1.488       .  S
C436        O437   1.277       .  A
C436       C1283   1.487       .  S
O438        C454   1.275       .  A
O438       Zn444   2.038       .  S
C439        O455   1.277       .  A
C439        O452   1.274       .  A
C439       C1282   1.491       .  S
O440        C453   1.274       .  A
O440       Cd447   2.052       .  S
O441        C459   1.274       .  A
O441       Cd450   2.075       .  S
O442        C456   1.271       .  A
O442       Cd446   2.034       .  S
O443        C454   1.271       .  A
O443       Cd446   2.049       .  S
Zn444       O455   2.043       .  S
Zn444       O457   1.996       .  S
Zn444       O449   1.949       .  S
O445        C456   1.276       .  A
O445       Cd450   2.070       .  S
Cd446       O448   2.057       .  S
Cd446       O449   1.988       .  S
Cd447       O451   2.068       .  S
Cd447       O460   2.076       .  S
Cd447       O449   1.997       .  S
O448        C458   1.271       .  A
O449       Cd450   1.996       .  S
Cd450       O452   2.066       .  S
O451        C458   1.273       .  A
C453        O457   1.274       .  A
C453       C1554   1.455       .  S
C456       C1557   1.456       .  S
C459        O460   1.275       .  A
C459       C1418   1.497       .  S
O461        C477   1.274       .  A
O461       Zn467   2.029       .  S
C462        O478   1.274       .  A
C462        O475   1.272       .  A
C462       C1571   1.444       .  S
O463        C476   1.270       .  A
O463       Cd470   2.056       .  S
O464        C482   1.273       .  A
O464       Cd473   2.073       .  S
O465        C479   1.274       .  A
O465       Cd469   2.070       .  S
O466        C477   1.273       .  A
O466       Cd469   2.068       .  S
Zn467       O478   2.008       .  S
Zn467       O480   2.023       .  S
Zn467       O472   1.949       .  S
O468        C479   1.276       .  A
O468       Cd473   2.082       .  S
Cd469       O471   2.073       .  S
Cd469       O472   1.991       .  S
Cd470       O474   2.035       .  S
Cd470       O483   2.051       .  S
Cd470       O472   1.991       .  S
O471        C481   1.277       .  A
O472       Cd473   1.999       .  S
Cd473       O475   2.046       .  S
O474        C481   1.271       .  A
C476        O480   1.272       .  A
C477       C1281   1.501       .  S
C479       C1451   1.495       .  S
C481       C1580   1.457       .  S
C482        O483   1.270       .  A
C482        C594   1.455       .  S
O484        C500   1.277       .  A
O484       Zn490   2.040       .  S
C485        O501   1.276       .  A
C485        O498   1.271       .  A
C485       C1465   1.457       .  S
O486        C499   1.275       .  A
O486       Cd493   2.072       .  S
O487        C505   1.272       .  A
O487       Cd496   2.055       .  S
O488        C502   1.273       .  A
O488       Cd492   2.073       .  S
O489        C500   1.275       .  A
O489       Cd492   2.070       .  S
Zn490       O501   2.020       .  S
Zn490       O503   2.038       .  S
Zn490       O495   1.948       .  S
O491        C502   1.272       .  A
O491       Cd496   2.062       .  S
Cd492       O494   2.056       .  S
Cd492       O495   1.998       .  S
Cd493       O497   2.046       .  S
Cd493       O506   2.068       .  S
Cd493       O495   2.000       .  S
O494        C504   1.273       .  A
O495       Cd496   1.991       .  S
Cd496       O498   2.037       .  S
O497        C504   1.271       .  A
C499        O503   1.276       .  A
C499       C1317   1.492       .  S
C500       C1453   1.495       .  S
C502        C689   1.468       .  S
C505        O506   1.273       .  A
O507        C523   1.275       .  A
O507       Zn513   2.015       .  S
C508        O524   1.277       .  A
C508        O521   1.276       .  A
C508       C1349   1.490       .  S
O509        C522   1.275       .  A
O509       Cd516   2.072       .  S
O510        C528   1.272       .  A
O510       Cd519   2.055       .  S
O511        C525   1.271       .  A
O511       Cd515   2.058       .  S
O512        C523   1.270       .  A
O512       Cd515   2.031       .  S
Zn513       O524   2.038       .  S
Zn513       O526   2.038       .  S
Zn513       O518   1.950       .  S
O514        C525   1.276       .  A
O514       Cd519   2.082       .  S
Cd515       O517   2.049       .  S
Cd515       O518   1.993       .  S
Cd516       O520   2.076       .  S
Cd516       O529   2.055       .  S
Cd516       O518   2.000       .  S
O517        C527   1.271       .  A
O518       Cd519   1.998       .  S
Cd519       O521   2.074       .  S
O520        C527   1.275       .  A
C522        O526   1.276       .  A
C522       C1316   1.488       .  S
C523       C1480   1.454       .  S
C528        O529   1.272       .  A
C528       C1503   1.446       .  S
O530        C546   1.276       .  A
O530       Zn536   2.022       .  S
C531        O547   1.276       .  A
C531        O544   1.276       .  A
C531       C1315   1.491       .  S
O532        C545   1.275       .  A
O532       Cd539   2.073       .  S
O533        C551   1.272       .  A
O533       Cd542   2.054       .  S
O534        C548   1.271       .  A
O534       Cd538   2.051       .  S
O535        C546   1.269       .  A
O535       Cd538   2.029       .  S
Zn536       O547   2.035       .  S
Zn536       O549   2.032       .  S
Zn536       O541   1.947       .  S
O537        C548   1.275       .  A
O537       Cd542   2.081       .  S
Cd538       O540   2.047       .  S
Cd538       O541   1.990       .  S
Cd539       O543   2.080       .  S
Cd539       O552   2.053       .  S
Cd539       O541   2.002       .  S
O540        C550   1.270       .  A
O541       Cd542   1.998       .  S
Cd542       O544   2.075       .  S
O543        C550   1.275       .  A
C545        O549   1.276       .  A
C545       C1382   1.490       .  S
C546       C1526   1.457       .  S
C550        C684   1.466       .  S
C551        O552   1.272       .  A
C551       C1502   1.445       .  S
O553        C569   1.277       .  A
O553       Zn559   2.030       .  S
C554        O570   1.276       .  A
C554        O567   1.273       .  A
C554       C1314   1.498       .  S
O555        C568   1.274       .  A
O555       Cd562   2.069       .  S
O556        C574   1.274       .  A
O556       Cd565   2.060       .  S
O557        C571   1.270       .  A
O557       Cd561   2.055       .  S
O558        C569   1.270       .  A
O558       Cd561   2.027       .  S
Zn559       O570   2.036       .  S
Zn559       O572   2.030       .  S
Zn559       O564   1.945       .  S
O560        C571   1.272       .  A
O560       Cd565   2.073       .  S
Cd561       O563   2.051       .  S
Cd561       O564   1.989       .  S
Cd562       O566   2.071       .  S
Cd562       O575   2.045       .  S
Cd562       O564   1.996       .  S
O563        C573   1.270       .  A
O564       Cd565   1.998       .  S
Cd565       O567   2.065       .  S
O566        C573   1.273       .  A
C568        O572   1.275       .  A
C568       C1416   1.487       .  S
C574        O575   1.271       .  A
C574       C1525   1.444       .  S
O576        C592   1.275       .  A
O576       Zn582   2.022       .  S
C577        O593   1.278   1_545  A
C577        O590   1.277       .  A
C577       C1042   1.511   1_545  S
O578        C591   1.275       .  A
O578       Cd585   2.061       .  S
O579        C597   1.278   1_545  A
O579       Cd588   2.077       .  S
O580        C594   1.274       .  A
O580       Cd584   2.069       .  S
O581        C592   1.272   1_545  A
O581       Cd584   2.057       .  S
Zn582       O593   2.069       .  S
Zn582       O595   2.032       .  S
Zn582       O587   1.961       .  S
O583        C594   1.274       .  A
O583       Cd588   2.067       .  S
Cd584       O586   2.098       .  S
Cd584       O587   2.007   1_545  S
Cd585       O589   2.100       .  S
Cd585       O598   2.066       .  S
Cd585       O587   2.010       .  S
O586        C596   1.277   1_545  A
O587       Cd588   2.005   1_565  S
Cd588       O590   2.099       .  S
O589        C596   1.277       .  A
C591        O595   1.277       .  A
C592        C619   1.454       .  S
C596        C907   1.505       .  S
C597        O598   1.275       .  A
C597        C755   1.468       .  S
O599        C615   1.275       .  A
O599       Zn605   2.018       .  S
C600        O616   1.277       .  A
C600        O613   1.275   1_545  A
C600       C1113   1.495       .  S
O601        C614   1.274       .  A
O601       Cd608   2.072       .  S
O602        C620   1.273       .  A
O602       Cd611   2.055       .  S
O603        C617   1.270   1_545  A
O603       Cd607   2.057       .  S
O604        C615   1.270       .  A
O604       Cd607   2.038       .  S
Zn605       O616   2.041       .  S
Zn605       O618   2.041       .  S
Zn605       O610   1.948   1_545  S
O606        C617   1.272       .  A
O606       Cd611   2.072       .  S
Cd607       O609   2.051       .  S
Cd607       O610   1.995   1_545  S
Cd608       O612   2.073       .  S
Cd608       O621   2.050       .  S
Cd608       O610   1.999       .  S
O609        C619   1.270   1_545  A
O610       Cd611   1.999       .  S
Cd611       O613   2.072       .  S
O612        C619   1.273       .  A
C614        O618   1.277   1_565  A
C614       C1147   1.490       .  S
C615       C1576   1.446       .  S
C617        C643   1.456       .  S
C620        O621   1.272       .  A
C620       C1549   1.445       .  S
O622        C638   1.274       .  A
O622       Zn628   2.022       .  S
C623        O639   1.277       .  A
C623        O636   1.273       .  A
C623        C807   1.457       .  S
O624        C637   1.275   1_545  A
O624       Cd631   2.091       .  S
O625        C643   1.274       .  A
O625       Cd634   2.072       .  S
O626        C640   1.278   1_545  A
O626       Cd630   2.100       .  S
O627        C638   1.276   1_545  A
O627       Cd630   2.079       .  S
Zn628       O639   2.038       .  S
Zn628       O641   2.058       .  S
Zn628       O633   1.962       .  S
O629        C640   1.276       .  A
O629       Cd634   2.093       .  S
Cd630       O632   2.073       .  S
Cd630       O633   2.008   1_545  S
Cd631       O635   2.078       .  S
Cd631       O644   2.061       .  S
Cd631       O633   2.006   1_545  S
O632        C642   1.275       .  A
O633       Cd634   2.007       .  S
Cd634       O636   2.057       .  S
O635        C642   1.277       .  A
C637        O641   1.276       .  A
C637        C874   1.518       .  S
C638        C661   1.462       .  S
C640       C1043   1.503       .  S
C642        C849   1.461       .  S
C643        O644   1.272   1_565  A
O645        C661   1.271       .  A
O645       Zn651   2.014       .  S
C646        O662   1.271       .  A
C646        O659   1.273       .  A
C646       C1528   1.444       .  S
O647        C660   1.273       .  A
O647       Cd654   2.072       .  S
O648        C666   1.274       .  A
O648       Cd657   2.070       .  S
O649        C663   1.275       .  A
O649       Cd653   2.073       .  S
O650        C661   1.274   1_545  A
O650       Cd653   2.077       .  S
Zn651       O662   1.990       .  S
Zn651       O664   2.012       .  S
Zn651       O656   1.944       .  S
O652        C663   1.276   1_565  A
O652       Cd657   2.080       .  S
Cd653       O655   2.056       .  S
Cd653       O656   2.001   1_545  S
Cd654       O658   2.049       .  S
Cd654       O667   2.076       .  S
Cd654       O656   1.996   1_545  S
O655        C665   1.274       .  A
O656       Cd657   1.999       .  S
Cd657       O659   2.057       .  S
O658        C665   1.273       .  A
C660        O664   1.271   1_545  A
C660        C688   1.460       .  S
C663       C1076   1.491       .  S
C666        O667   1.275   1_565  A
C666       C1145   1.485       .  S
O668        C684   1.275       .  A
O668       Zn674   2.021       .  S
C669        O685   1.277   1_545  A
C669        O682   1.274       .  A
C669        C712   1.467       .  S
O670        C683   1.278       .  A
O670       Cd677   2.100       .  S
O671        C689   1.276       .  A
O671       Cd680   2.068       .  S
O672        C686   1.277   1_565  A
O672       Cd676   2.101       .  S
O673        C684   1.276       .  A
O673       Cd676   2.064       .  S
Zn674       O685   2.026       .  S
Zn674       O687   2.062       .  S
Zn674       O679   1.962   1_565  S
O675        C686   1.277       .  A
O675       Cd680   2.100       .  S
Cd676       O678   2.073       .  S
Cd676       O679   2.007   1_565  S
Cd677       O681   2.079       .  S
Cd677       O690   2.076       .  S
Cd677       O679   2.011       .  S
O678        C688   1.275   1_565  A
O679       Cd680   2.009       .  S
Cd680       O682   2.063       .  S
O681        C688   1.276       .  A
C683        O687   1.278   1_545  A
C683       C1044   1.508   1_545  S
C686        C909   1.506   1_545  S
C689        O690   1.276       .  A
O691        C707   1.277   1_565  A
O691       Zn697   2.038       .  S
C692        O708   1.275       .  A
C692        O705   1.269       .  A
C692       C1508   1.442       .  S
O693        C706   1.275       .  A
O693       Cd700   2.078       .  S
O694        C712   1.271   1_565  A
O694       Cd703   2.055       .  S
O695        C709   1.272       .  A
O695       Cd699   2.070       .  S
O696        C707   1.273       .  A
O696       Cd699   2.066       .  S
Zn697       O708   2.014       .  S
Zn697       O710   2.042       .  S
Zn697       O702   1.949   1_565  S
O698        C709   1.271   1_565  A
O698       Cd703   2.062       .  S
Cd699       O701   2.057       .  S
Cd699       O702   1.999       .  S
Cd700       O704   2.048       .  S
Cd700       O713   2.076       .  S
Cd700       O702   1.995       .  S
O701        C711   1.275       .  A
O702       Cd703   1.995   1_545  S
Cd703       O705   2.030       .  S
O704        C711   1.273       .  A
C706        O710   1.276   1_545  A
C706       C1215   1.493       .  S
C707       C1078   1.496       .  S
C709        C729   1.457       .  S
C711       C1485   1.455       .  S
C712        O713   1.275       .  A
O714        C730   1.279       .  A
O714       Zn720   2.065       .  S
C715        O731   1.276       .  A
C715        O728   1.271       .  A
C715        C778   1.456       .  S
O716        C729   1.275       .  A
O716       Cd723   2.067       .  S
O717        C735   1.276   1_565  A
O717       Cd726   2.097       .  S
O718        C732   1.274   1_545  A
O718       Cd722   2.067       .  S
O719        C730   1.276   1_545  A
O719       Cd722   2.093       .  S
Zn720       O731   2.033       .  S
Zn720       O733   2.022       .  S
Zn720       O725   1.960       .  S
O721        C732   1.277       .  A
O721       Cd726   2.081       .  S
Cd722       O724   2.085       .  S
Cd722       O725   2.008   1_545  S
Cd723       O727   2.059       .  S
Cd723       O736   2.091       .  S
Cd723       O725   2.006   1_545  S
O724        C734   1.276       .  A
O725       Cd726   2.008       .  S
Cd726       O728   2.056       .  S
O727        C734   1.272       .  A
C729        O733   1.275   1_545  A
C730        C872   1.505       .  S
C732        C757   1.459       .  S
C734        C804   1.460       .  S
C735        O736   1.274       .  A
C735       C1045   1.515       .  S
O737        C753   1.276       .  A
O737       Zn743   2.020       .  S
C738        O754   1.276       .  A
C738        O751   1.275   1_545  A
C738       C1213   1.490       .  S
O739        C752   1.275   1_565  A
O739       Cd746   2.071       .  S
O740        C758   1.273       .  A
O740       Cd749   2.053       .  S
O741        C755   1.270   1_545  A
O741       Cd745   2.051       .  S
O742        C753   1.270       .  A
O742       Cd745   2.037       .  S
Zn743       O754   2.037       .  S
Zn743       O756   2.047       .  S
Zn743       O748   1.949       .  S
O744        C755   1.275       .  A
O744       Cd749   2.081       .  S
Cd745       O747   2.057       .  S
Cd745       O748   1.995       .  S
Cd746       O750   2.077       .  S
Cd746       O759   2.055       .  S
Cd746       O748   2.000   1_565  S
O747        C757   1.270   1_545  A
O748       Cd749   1.998   1_545  S
Cd749       O751   2.076       .  S
O750        C757   1.273       .  A
C752        O756   1.278       .  A
C752       C1111   1.498       .  S
C753       C1597   1.446       .  S
C758        O759   1.273       .  A
C758       C1603   1.446       .  S
O760        C776   1.274       .  A
O760       Zn766   2.015       .  S
C761        O777   1.277       .  A
C761        O774   1.275       .  A
C761       C1383   1.490       .  S
O762        C775   1.276       .  A
O762       Cd769   2.078       .  S
O763        C781   1.272       .  A
O763       Cd772   2.053       .  S
O764        C778   1.268       .  A
O764       Cd768   2.047       .  S
O765        C776   1.270       .  A
O765       Cd768   2.040       .  S
Zn766       O777   2.040       .  S
Zn766       O779   2.039       .  S
Zn766       O771   1.950       .  S
O767        C778   1.273       .  A
O767       Cd772   2.076       .  S
Cd768       O770   2.048       .  S
Cd768       O771   1.994       .  S
Cd769       O773   2.074       .  S
Cd769       O782   2.054       .  S
Cd769       O771   2.000       .  S
O770        C780   1.269       .  A
O771       Cd772   1.997       .  S
Cd772       O774   2.073       .  S
O773        C780   1.273       .  A
C775        O779   1.277       .  A
C775       C1350   1.491       .  S
C776       C1620   1.446       .  S
C781        O782   1.272       .  A
C781       C1488   1.446       .  S
O783        C799   1.275       .  A
O783       Zn789   2.030       .  S
C784        O800   1.275       .  A
C784        O797   1.271       .  A
C784       C1479   1.454       .  S
O785        C798   1.275       .  A
O785       Cd792   2.072       .  S
O786        C804   1.270       .  A
O786       Cd795   2.060       .  S
O787        C801   1.274       .  A
O787       Cd791   2.078       .  S
O788        C799   1.275       .  A
O788       Cd791   2.076       .  S
Zn789       O800   2.013       .  S
Zn789       O802   2.038       .  S
Zn789       O794   1.950       .  S
O790        C801   1.269       .  A
O790       Cd795   2.050       .  S
Cd791       O793   2.059       .  S
Cd791       O794   2.002       .  S
Cd792       O796   2.050       .  S
Cd792       O805   2.077       .  S
Cd792       O794   1.996       .  S
O793        C803   1.273       .  A
O794       Cd795   1.993       .  S
Cd795       O797   2.034       .  S
O796        C803   1.272       .  A
C798        O802   1.276       .  A
C798       C1452   1.497       .  S
C799       C1348   1.488       .  S
C803       C1595   1.446       .  S
C804        O805   1.273       .  A
O806        C822   1.274       .  A
O806       Zn812   2.010       .  S
C807        O823   1.273       .  A
C807        O820   1.269       .  A
O808        C821   1.273       .  A
O808       Cd815   2.070       .  S
O809        C827   1.269       .  A
O809       Cd818   2.031       .  S
O810        C824   1.275       .  A
O810       Cd814   2.078       .  S
O811        C822   1.272       .  A
O811       Cd814   2.045       .  S
Zn812       O823   2.027       .  S
Zn812       O825   2.036       .  S
Zn812       O817   1.947       .  S
O813        C824   1.269       .  A
O813       Cd818   2.045       .  S
Cd814       O816   2.083       .  S
Cd814       O817   1.996       .  S
Cd815       O819   2.070       .  S
Cd815       O828   2.068       .  S
Cd815       O817   1.995       .  S
O816        C826   1.276       .  A
O817       Cd818   1.994       .  S
Cd818       O820   2.054       .  S
O819        C826   1.274       .  A
C821        O825   1.275       .  A
C821       C1385   1.501       .  S
C822       C1511   1.446       .  S
C826       C1417   1.490       .  S
C827        O828   1.275       .  A
C827       C1551   1.443       .  S
O829        C845   1.276       .  A
O829       Zn835   2.020       .  S
C830        O846   1.276       .  A
C830        O843   1.275       .  A
C830       C1419   1.492       .  S
O831        C844   1.277       .  A
O831       Cd838   2.081       .  S
O832        C850   1.272       .  A
O832       Cd841   2.051       .  S
O833        C847   1.270       .  A
O833       Cd837   2.049       .  S
O834        C845   1.270       .  A
O834       Cd837   2.030       .  S
Zn835       O846   2.037       .  S
Zn835       O848   2.035       .  S
Zn835       O840   1.948       .  S
O836        C847   1.274       .  A
O836       Cd841   2.069       .  S
Cd837       O839   2.055       .  S
Cd837       O840   1.994       .  S
Cd838       O842   2.087       .  S
Cd838       O851   2.064       .  S
Cd838       O840   2.003       .  S
O839        C849   1.270       .  A
O840       Cd841   1.997       .  S
Cd841       O843   2.076       .  S
O842        C849   1.275       .  A
C844        O848   1.276       .  A
C844       C1450   1.498       .  S
C850        O851   1.274       .  A
C850       C1572   1.448       .  S
N852        C857   1.359       .  A
N852        C856   1.360       .  A
N852        H884   1.038       .  S
N853        C860   1.359       .  A
N853        C861   1.358       .  A
N854        C859   1.363       .  A
N854        C858   1.361       .  A
N854        H885   1.036       .  S
N855        C862   1.360       .  A
N855        C863   1.361       .  A
C856        C864   1.387       .  A
C856        C872   1.426   1_545  A
C857        C873   1.426   1_655  A
C857        C865   1.388       .  A
C858        C866   1.384       .  A
C858        C875   1.429   1_455  A
C859        C874   1.438       .  A
C859        C867   1.393       .  A
C860        C872   1.423       .  A
C860        C868   1.386       .  A
C861        C875   1.424       .  A
C861        C869   1.387       .  A
C862        C870   1.383       .  A
C862        C873   1.426       .  A
C863        C871   1.392       .  A
C863        C874   1.436   1_545  A
C864        C865   1.376       .  A
C864        H876   1.082       .  S
C865        H877   1.082       .  S
C866        C867   1.373       .  A
C866        H878   1.082       .  S
C867        H879   1.078       .  S
C868        C869   1.372       .  A
C868        H880   1.082       .  S
C869        H881   1.082       .  S
C870        C871   1.367       .  A
C870        H882   1.082       .  S
C871        H883   1.078       .  S
N886        C891   1.360       .  A
N886        C890   1.359       .  A
N886        H918   1.039       .  S
N887        C894   1.358       .  A
N887        C895   1.359       .  A
N888        C893   1.360       .  A
N888        C892   1.360       .  A
N888        H919   1.038       .  S
N889        C896   1.358       .  A
N889        C897   1.358       .  A
C890        C898   1.388       .  A
C890        C906   1.426       .  A
C891        C907   1.426       .  A
C891        C899   1.387       .  A
C892        C900   1.387       .  A
C892        C909   1.426   1_545  A
C893        C908   1.426   1_554  A
C893        C901   1.387       .  A
C894        C906   1.424   1_554  A
C894        C902   1.387       .  A
C895        C909   1.424       .  A
C895        C903   1.386       .  A
C896        C904   1.387       .  A
C896        C907   1.424   1_545  A
C897        C905   1.386       .  A
C897        C908   1.424       .  A
C898        C899   1.377       .  A
C898        H910   1.082       .  S
C899        H911   1.082       .  S
C900        C901   1.376       .  A
C900        H912   1.082       .  S
C901        H913   1.082       .  S
C902        C903   1.373       .  A
C902        H914   1.082       .  S
C903        H915   1.082       .  S
C904        C905   1.373       .  A
C904        H916   1.082       .  S
C905        H917   1.082       .  S
N920        C925   1.359       .  A
N920        C924   1.359       .  A
N920        H952   1.038       .  S
N921        C928   1.359       .  A
N921        C929   1.359       .  A
N922        C927   1.359       .  A
N922        C926   1.360       .  A
N922        H953   1.038       .  S
N923        C930   1.359       .  A
N923        C931   1.359       .  A
C924        C932   1.387       .  A
C924        C940   1.425       .  A
C925        C941   1.426       .  A
C925        C933   1.387       .  A
C926        C934   1.387       .  A
C926        C943   1.426   1_554  A
C927        C942   1.426   1_455  A
C927        C935   1.388       .  A
C928        C940   1.425   1_455  A
C928        C936   1.387       .  A
C929        C943   1.424       .  A
C929        C937   1.386       .  A
C930        C938   1.387       .  A
C930        C941   1.424   1_554  A
C931        C939   1.387       .  A
C931        C942   1.424       .  A
C932        C933   1.377       .  A
C932        H944   1.082       .  S
C933        H945   1.082       .  S
C934        C935   1.377       .  A
C934        H946   1.082       .  S
C935        H947   1.082       .  S
C936        C937   1.373       .  A
C936        H948   1.082       .  S
C937        H949   1.082       .  S
C938        C939   1.373       .  A
C938        H950   1.082       .  S
C939        H951   1.082       .  S
N954        C959   1.361       .  A
N954        C958   1.361       .  A
N954        H986   1.038       .  S
N955        C962   1.360       .  A
N955        C963   1.360       .  A
N956        C961   1.361       .  A
N956        C960   1.361       .  A
N956        H987   1.039       .  S
N957        C964   1.360       .  A
N957        C965   1.360       .  A
C958        C966   1.387   1_556  A
C958        C974   1.429       .  A
C959        C975   1.430       .  A
C959        C967   1.388   1_556  A
C960        C968   1.387   1_556  A
C960        C977   1.428       .  A
C961        C976   1.428       .  A
C961        C969   1.387   1_556  A
C962        C974   1.427       .  A
C962        C970   1.387       .  A
C963        C977   1.426       .  A
C963        C971   1.387       .  A
C964        C972   1.387       .  A
C964        C975   1.427       .  A
C965        C973   1.387       .  A
C965        C976   1.426       .  A
C966        C967   1.378       .  A
C966        H978   1.082       .  S
C967        H979   1.082       .  S
C968        C969   1.378       .  A
C968        H980   1.082       .  S
C969        H981   1.082       .  S
C970        C971   1.372       .  A
C970        H982   1.082       .  S
C971        H983   1.082       .  S
C972        C973   1.373       .  A
C972        H984   1.082       .  S
C973        H985   1.082       .  S
N988        C993   1.362   1_455  A
N988        C992   1.362   1_455  A
N988       H1020   1.031       .  S
N989        C996   1.361   1_655  A
N989        C997   1.361   1_655  A
N990        C995   1.361   1_455  A
N990        C994   1.362   1_455  A
N990       H1021   1.032       .  S
N991        C998   1.360       .  A
N991        C999   1.360       .  A
C992       C1000   1.385       .  A
C992       C1008   1.430       .  A
C993       C1009   1.436   1_655  A
C993       C1001   1.391       .  A
C994       C1002   1.392       .  A
C994       C1011   1.438   1_655  A
C995       C1010   1.430   1_655  A
C995       C1003   1.384       .  A
C996       C1008   1.430   1_455  A
C996       C1004   1.384       .  A
C997       C1011   1.437       .  A
C997       C1005   1.391       .  A
C998       C1006   1.390       .  A
C998       C1009   1.433       .  A
C999       C1007   1.385       .  A
C999       C1010   1.427       .  A
C1000      C1001   1.370       .  A
C1000      H1012   1.081       .  S
C1001      H1013   1.078       .  S
C1002      C1003   1.372       .  A
C1002      H1014   1.078       .  S
C1003      H1015   1.082       .  S
C1004      C1005   1.369       .  A
C1004      H1016   1.081       .  S
C1005      H1017   1.079       .  S
C1006      C1007   1.367       .  A
C1006      H1018   1.079       .  S
C1007      H1019   1.081       .  S
N1022      C1027   1.360   1_565  A
N1022      C1026   1.360   1_565  A
N1022      H1054   1.038       .  S
N1023      C1030   1.361       .  A
N1023      C1031   1.361       .  A
N1024      C1029   1.362   1_565  A
N1024      C1028   1.362   1_565  A
N1024      H1055   1.038       .  S
N1025      C1032   1.357       .  A
N1025      C1033   1.358       .  A
C1026      C1034   1.387       .  A
C1026      C1042   1.426   1_545  A
C1027      C1043   1.427   1_545  A
C1027      C1035   1.388       .  A
C1028      C1036   1.394       .  A
C1028      C1045   1.438       .  A
C1029      C1044   1.427   1_545  A
C1029      C1037   1.383       .  A
C1030      C1042   1.427       .  A
C1030      C1038   1.383       .  A
C1031      C1045   1.435   1_565  A
C1031      C1039   1.391       .  A
C1032      C1040   1.387       .  A
C1032      C1043   1.422       .  A
C1033      C1041   1.386       .  A
C1033      C1044   1.422       .  A
C1034      C1035   1.377       .  A
C1034      H1046   1.082       .  S
C1035      H1047   1.082       .  S
C1036      C1037   1.373       .  A
C1036      H1048   1.077       .  S
C1037      H1049   1.082       .  S
C1038      C1039   1.368       .  A
C1038      H1050   1.081       .  S
C1039      H1051   1.078       .  S
C1040      C1041   1.372       .  A
C1040      H1052   1.082       .  S
C1041      H1053   1.082       .  S
N1056      C1061   1.357       .  A
N1056      C1060   1.356       .  A
N1056      H1088   1.032       .  S
N1057      C1064   1.355       .  A
N1057      C1065   1.355       .  A
N1058      C1063   1.357       .  A
N1058      C1062   1.358       .  A
N1058      H1089   1.031       .  S
N1059      C1066   1.357       .  A
N1059      C1067   1.356       .  A
C1060      C1068   1.386       .  A
C1060      C1076   1.422   1_565  A
C1061      C1077   1.427   1_455  A
C1061      C1069   1.391       .  A
C1062      C1070   1.386       .  A
C1062      C1079   1.424   1_655  A
C1063      C1078   1.430       .  A
C1063      C1071   1.391       .  A
C1064      C1076   1.420       .  A
C1064      C1072   1.387       .  A
C1065      C1079   1.422       .  A
C1065      C1073   1.387       .  A
C1066      C1074   1.387       .  A
C1066      C1077   1.425       .  A
C1067      C1075   1.388       .  A
C1067      C1078   1.427   1_565  A
C1068      C1069   1.368       .  A
C1068      H1080   1.081       .  S
C1069      H1081   1.079       .  S
C1070      C1071   1.370       .  A
C1070      H1082   1.081       .  S
C1071      H1083   1.079       .  S
C1072      C1073   1.371       .  A
C1072      H1084   1.082       .  S
C1073      H1085   1.082       .  S
C1074      C1075   1.369       .  A
C1074      H1086   1.081       .  S
C1075      H1087   1.081       .  S
N1090      C1095   1.359       .  A
N1090      C1094   1.358       .  A
N1090      H1122   1.033       .  S
N1091      C1098   1.354       .  A
N1091      C1099   1.355       .  A
N1092      C1097   1.360       .  A
N1092      C1096   1.359       .  A
N1092      H1123   1.035       .  S
N1093      C1100   1.356       .  A
N1093      C1101   1.356       .  A
C1094      C1102   1.390       .  A
C1094      C1110   1.429   1_655  A
C1095      C1111   1.425       .  A
C1095      C1103   1.387       .  A
C1096      C1104   1.386       .  A
C1096      C1113   1.425   1_565  A
C1097      C1112   1.430       .  A
C1097      C1105   1.390       .  A
C1098      C1110   1.423       .  A
C1098      C1106   1.388       .  A
C1099      C1113   1.420       .  A
C1099      C1107   1.386       .  A
C1100      C1108   1.387       .  A
C1100      C1111   1.424   1_565  A
C1101      C1109   1.388       .  A
C1101      C1112   1.425   1_655  A
C1102      C1103   1.369       .  A
C1102      H1114   1.080       .  S
C1103      H1115   1.081       .  S
C1104      C1105   1.369       .  A
C1104      H1116   1.082       .  S
C1105      H1117   1.079       .  S
C1106      C1107   1.369       .  A
C1106      H1118   1.082       .  S
C1107      H1119   1.082       .  S
C1108      C1109   1.368       .  A
C1108      H1120   1.082       .  S
C1109      H1121   1.082       .  S
N1124      C1129   1.354       .  A
N1124      C1128   1.355       .  A
N1124      H1156   1.039       .  S
N1125      C1132   1.354       .  A
N1125      C1133   1.354       .  A
N1126      C1131   1.355       .  A
N1126      C1130   1.355       .  A
N1126      H1157   1.039       .  S
N1127      C1134   1.353       .  A
N1127      C1135   1.353       .  A
C1128      C1136   1.387       .  A
C1128      C1144   1.417   1_554  A
C1129      C1145   1.417       .  A
C1129      C1137   1.387       .  A
C1130      C1138   1.387       .  A
C1130      C1147   1.417   1_545  A
C1131      C1146   1.417       .  A
C1131      C1139   1.387       .  A
C1132      C1144   1.417       .  A
C1132      C1140   1.387       .  A
C1133      C1147   1.417       .  A
C1133      C1141   1.386       .  A
C1134      C1142   1.387       .  A
C1134      C1145   1.414   1_545  A
C1135      C1143   1.386       .  A
C1135      C1146   1.414   1_554  A
C1136      C1137   1.376       .  A
C1136      H1148   1.082       .  S
C1137      H1149   1.082       .  S
C1138      C1139   1.375       .  A
C1138      H1150   1.082       .  S
C1139      H1151   1.082       .  S
C1140      C1141   1.372       .  A
C1140      H1152   1.082       .  S
C1141      H1153   1.082       .  S
C1142      C1143   1.371       .  A
C1142      H1154   1.082       .  S
C1143      H1155   1.082       .  S
N1158      C1163   1.354       .  A
N1158      C1162   1.355       .  A
N1158      H1190   1.039       .  S
N1159      C1166   1.354       .  A
N1159      C1167   1.354       .  A
N1160      C1165   1.359       .  A
N1160      C1164   1.358       .  A
N1160      H1191   1.036       .  S
N1161      C1168   1.355       .  A
N1161      C1169   1.356       .  A
C1162      C1170   1.387       .  A
C1162      C1178   1.415       .  A
C1163      C1179   1.415   1_455  A
C1163      C1171   1.387       .  A
C1164      C1172   1.384       .  A
C1164      C1181   1.422       .  A
C1165      C1180   1.432   1_554  A
C1165      C1173   1.393       .  A
C1166      C1178   1.416   1_554  A
C1166      C1174   1.386       .  A
C1167      C1181   1.417   1_455  A
C1167      C1175   1.387       .  A
C1168      C1176   1.384       .  A
C1168      C1179   1.418       .  A
C1169      C1177   1.391       .  A
C1169      C1180   1.426       .  A
C1170      C1171   1.372       .  A
C1170      H1182   1.082       .  S
C1171      H1183   1.082       .  S
C1172      C1173   1.371       .  A
C1172      H1184   1.082       .  S
C1173      H1185   1.078       .  S
C1174      C1175   1.371       .  A
C1174      H1186   1.082       .  S
C1175      H1187   1.082       .  S
C1176      C1177   1.368       .  A
C1176      H1188   1.082       .  S
C1177      H1189   1.079       .  S
N1192      C1197   1.356       .  A
N1192      C1196   1.355       .  A
N1192      H1224   1.038       .  S
N1193      C1200   1.355       .  A
N1193      C1201   1.355       .  A
N1194      C1199   1.356       .  A
N1194      C1198   1.356       .  A
N1194      H1225   1.038       .  S
N1195      C1202   1.354       .  A
N1195      C1203   1.353       .  A
C1196      C1204   1.387       .  A
C1196      C1212   1.418       .  A
C1197      C1213   1.419   1_565  A
C1197      C1205   1.387       .  A
C1198      C1206   1.387       .  A
C1198      C1215   1.420       .  A
C1199      C1214   1.420   1_554  A
C1199      C1207   1.388       .  A
C1200      C1212   1.418   1_554  A
C1200      C1208   1.387       .  A
C1201      C1215   1.418   1_565  A
C1201      C1209   1.386       .  A
C1202      C1210   1.386       .  A
C1202      C1213   1.416       .  A
C1203      C1211   1.387       .  A
C1203      C1214   1.416       .  A
C1204      C1205   1.374       .  A
C1204      H1216   1.082       .  S
C1205      H1217   1.082       .  S
C1206      C1207   1.375       .  A
C1206      H1218   1.082       .  S
C1207      H1219   1.082       .  S
C1208      C1209   1.373       .  A
C1208      H1220   1.082       .  S
C1209      H1221   1.082       .  S
C1210      C1211   1.372       .  A
C1210      H1222   1.082       .  S
C1211      H1223   1.082       .  S
N1226      C1231   1.356       .  A
N1226      C1230   1.356       .  A
N1226      H1258   1.038       .  S
N1227      C1234   1.357       .  A
N1227      C1235   1.357       .  A
N1228      C1233   1.357       .  A
N1228      C1232   1.359       .  A
N1228      H1259   1.036       .  S
N1229      C1236   1.355       .  A
N1229      C1237   1.355       .  A
C1230      C1238   1.388       .  A
C1230      C1246   1.419   1_655  A
C1231      C1247   1.419       .  A
C1231      C1239   1.387       .  A
C1232      C1240   1.392       .  A
C1232      C1249   1.430   1_554  A
C1233      C1248   1.421       .  A
C1233      C1241   1.384       .  A
C1234      C1246   1.420       .  A
C1234      C1242   1.384       .  A
C1235      C1249   1.430       .  A
C1235      C1243   1.391       .  A
C1236      C1244   1.386       .  A
C1236      C1247   1.417   1_554  A
C1237      C1245   1.387       .  A
C1237      C1248   1.418   1_655  A
C1238      C1239   1.374       .  A
C1238      H1250   1.082       .  S
C1239      H1251   1.082       .  S
C1240      C1241   1.371       .  A
C1240      H1252   1.078       .  S
C1241      H1253   1.082       .  S
C1242      C1243   1.367       .  A
C1242      H1254   1.082       .  S
C1243      H1255   1.079       .  S
C1244      C1245   1.372       .  A
C1244      H1256   1.082       .  S
C1245      H1257   1.082       .  S
N1260      C1265   1.358       .  A
N1260      C1264   1.356       .  A
N1260      H1292   1.037       .  S
N1261      C1268   1.351       .  A
N1261      C1269   1.352       .  A
N1262      C1267   1.355       .  A
N1262      C1266   1.356       .  A
N1262      H1293   1.039       .  S
N1263      C1270   1.358       .  A
N1263      C1271   1.356       .  A
C1264      C1272   1.382       .  A
C1264      C1280   1.417       .  A
C1265      C1281   1.430       .  A
C1265      C1273   1.394       .  A
C1266      C1274   1.387       .  A
C1266      C1283   1.418       .  A
C1267      C1282   1.418       .  A
C1267      C1275   1.388       .  A
C1268      C1280   1.412       .  A
C1268      C1276   1.387       .  A
C1269      C1283   1.412       .  A
C1269      C1277   1.386       .  A
C1270      C1278   1.391       .  A
C1270      C1281   1.428       .  A
C1271      C1279   1.384       .  A
C1271      C1282   1.420       .  A
C1272      C1273   1.368       .  A
C1272      H1284   1.082       .  S
C1273      H1285   1.077       .  S
C1274      C1275   1.375       .  A
C1274      H1286   1.082       .  S
C1275      H1287   1.082       .  S
C1276      C1277   1.370       .  A
C1276      H1288   1.082       .  S
C1277      H1289   1.082       .  S
C1278      C1279   1.368       .  A
C1278      H1290   1.079       .  S
C1279      H1291   1.082       .  S
N1294      C1299   1.358       .  A
N1294      C1298   1.358       .  A
N1294      H1326   1.037       .  S
N1295      C1302   1.357       .  A
N1295      C1303   1.356       .  A
N1296      C1301   1.355       .  A
N1296      C1300   1.355       .  A
N1296      H1327   1.039       .  S
N1297      C1304   1.353       .  A
N1297      C1305   1.354       .  A
C1298      C1306   1.393       .  A
C1298      C1314   1.430       .  A
C1299      C1315   1.421       .  A
C1299      C1307   1.384       .  A
C1300      C1308   1.387       .  A
C1300      C1317   1.417       .  A
C1301      C1316   1.417       .  A
C1301      C1309   1.387       .  A
C1302      C1314   1.426       .  A
C1302      C1310   1.391       .  A
C1303      C1317   1.419       .  A
C1303      C1311   1.384       .  A
C1304      C1312   1.387       .  A
C1304      C1315   1.416       .  A
C1305      C1313   1.386       .  A
C1305      C1316   1.416       .  A
C1306      C1307   1.371       .  A
C1306      H1318   1.079       .  S
C1307      H1319   1.082       .  S
C1308      C1309   1.375       .  A
C1308      H1320   1.082       .  S
C1309      H1321   1.082       .  S
C1310      C1311   1.367       .  A
C1310      H1322   1.079       .  S
C1311      H1323   1.082       .  S
C1312      C1313   1.371       .  A
C1312      H1324   1.082       .  S
C1313      H1325   1.082       .  S
N1328      C1333   1.355       .  A
N1328      C1332   1.355       .  A
N1328      H1360   1.038       .  S
N1329      C1336   1.354       .  A
N1329      C1337   1.355       .  A
N1330      C1335   1.356       .  A
N1330      C1334   1.356       .  A
N1330      H1361   1.039       .  S
N1331      C1338   1.355       .  A
N1331      C1339   1.354       .  A
C1332      C1340   1.388       .  A
C1332      C1348   1.418       .  A
C1333      C1349   1.418       .  A
C1333      C1341   1.387       .  A
C1334      C1342   1.387       .  A
C1334      C1351   1.419       .  A
C1335      C1350   1.419       .  A
C1335      C1343   1.388       .  A
C1336      C1348   1.418       .  A
C1336      C1344   1.387       .  A
C1337      C1351   1.417       .  A
C1337      C1345   1.386       .  A
C1338      C1346   1.386       .  A
C1338      C1349   1.417       .  A
C1339      C1347   1.386       .  A
C1339      C1350   1.417       .  A
C1340      C1341   1.375       .  A
C1340      H1352   1.082       .  S
C1341      H1353   1.082       .  S
C1342      C1343   1.374       .  A
C1342      H1354   1.082       .  S
C1343      H1355   1.082       .  S
C1344      C1345   1.371       .  A
C1344      H1356   1.082       .  S
C1345      H1357   1.082       .  S
C1346      C1347   1.371       .  A
C1346      H1358   1.082       .  S
C1347      H1359   1.082       .  S
N1362      C1367   1.356       .  A
N1362      C1366   1.355       .  A
N1362      H1394   1.038       .  S
N1363      C1370   1.355       .  A
N1363      C1371   1.357       .  A
N1364      C1369   1.357       .  A
N1364      C1368   1.359       .  A
N1364      H1395   1.036       .  S
N1365      C1372   1.354       .  A
N1365      C1373   1.353       .  A
C1366      C1374   1.388       .  A
C1366      C1382   1.418       .  A
C1367      C1383   1.418       .  A
C1367      C1375   1.387       .  A
C1368      C1376   1.392       .  A
C1368      C1385   1.431       .  A
C1369      C1384   1.421       .  A
C1369      C1377   1.384       .  A
C1370      C1382   1.419       .  A
C1370      C1378   1.384       .  A
C1371      C1385   1.427       .  A
C1371      C1379   1.390       .  A
C1372      C1380   1.386       .  A
C1372      C1383   1.415       .  A
C1373      C1381   1.387       .  A
C1373      C1384   1.416       .  A
C1374      C1375   1.373       .  A
C1374      H1386   1.082       .  S
C1375      H1387   1.082       .  S
C1376      C1377   1.370       .  A
C1376      H1388   1.078       .  S
C1377      H1389   1.082       .  S
C1378      C1379   1.368       .  A
C1378      H1390   1.082       .  S
C1379      H1391   1.079       .  S
C1380      C1381   1.372       .  A
C1380      H1392   1.082       .  S
C1381      H1393   1.082       .  S
N1396      C1401   1.355       .  A
N1396      C1400   1.355       .  A
N1396      H1428   1.038       .  S
N1397      C1404   1.354       .  A
N1397      C1405   1.354       .  A
N1398      C1403   1.358       .  A
N1398      C1402   1.357       .  A
N1398      H1429   1.037       .  S
N1399      C1406   1.356       .  A
N1399      C1407   1.356       .  A
C1400      C1408   1.388       .  A
C1400      C1416   1.418       .  A
C1401      C1417   1.417       .  A
C1401      C1409   1.387       .  A
C1402      C1410   1.384       .  A
C1402      C1419   1.421       .  A
C1403      C1418   1.429       .  A
C1403      C1411   1.392       .  A
C1404      C1416   1.415       .  A
C1404      C1412   1.386       .  A
C1405      C1419   1.416       .  A
C1405      C1413   1.386       .  A
C1406      C1414   1.384       .  A
C1406      C1417   1.418       .  A
C1407      C1415   1.391       .  A
C1407      C1418   1.426       .  A
C1408      C1409   1.374       .  A
C1408      H1420   1.082       .  S
C1409      H1421   1.082       .  S
C1410      C1411   1.371       .  A
C1410      H1422   1.082       .  S
C1411      H1423   1.078       .  S
C1412      C1413   1.372       .  A
C1412      H1424   1.082       .  S
C1413      H1425   1.082       .  S
C1414      C1415   1.366       .  A
C1414      H1426   1.082       .  S
C1415      H1427   1.080       .  S
N1430      C1435   1.358       .  A
N1430      C1434   1.359       .  A
N1430      H1462   1.038       .  S
N1431      C1438   1.356       .  A
N1431      C1439   1.355       .  A
N1432      C1437   1.359       .  A
N1432      C1436   1.359       .  A
N1432      H1463   1.038       .  S
N1433      C1440   1.356       .  A
N1433      C1441   1.356       .  A
C1434      C1442   1.387       .  A
C1434      C1450   1.423       .  A
C1435      C1451   1.423       .  A
C1435      C1443   1.388       .  A
C1436      C1444   1.388       .  A
C1436      C1453   1.423       .  A
C1437      C1452   1.423       .  A
C1437      C1445   1.387       .  A
C1438      C1450   1.422       .  A
C1438      C1446   1.387       .  A
C1439      C1453   1.422       .  A
C1439      C1447   1.387       .  A
C1440      C1448   1.387       .  A
C1440      C1451   1.423       .  A
C1441      C1449   1.387       .  A
C1441      C1452   1.423       .  A
C1442      C1443   1.370       .  A
C1442      H1454   1.082       .  S
C1443      H1455   1.082       .  S
C1444      C1445   1.370       .  A
C1444      H1456   1.082       .  S
C1445      H1457   1.082       .  S
C1446      C1447   1.366       .  A
C1446      H1458   1.080       .  S
C1447      H1459   1.081       .  S
C1448      C1449   1.366       .  A
C1448      H1460   1.081       .  S
C1449      H1461   1.081       .  S
O1464      C1480   1.270       .  A
O1464     Zn1470   1.990       .  S
C1465      O1481   1.270       .  A
C1465      O1478   1.273       .  A
O1466      C1479   1.272       .  A
O1466     Cd1473   2.044       .  S
O1467      C1485   1.272       .  A
O1467     Cd1476   2.048       .  S
O1468      C1482   1.271       .  A
O1468     Cd1472   2.051       .  S
O1469      C1480   1.273       .  A
O1469     Cd1472   2.049       .  S
Zn1470     O1481   1.991       .  S
Zn1470     O1483   1.995       .  S
Zn1470     O1475   1.937       .  S
O1471      C1482   1.271       .  A
O1471     Cd1476   2.044       .  S
Cd1472     O1474   2.052       .  S
Cd1472     O1475   1.985       .  S
Cd1473     O1477   2.046       .  S
Cd1473     O1486   2.044       .  S
Cd1473     O1475   1.983       .  S
O1474      C1484   1.270       .  A
O1475     Cd1476   1.980       .  S
Cd1476     O1478   2.052       .  S
O1477      C1484   1.270       .  A
C1479      O1483   1.271       .  A
C1485      O1486   1.270       .  A
O1487      C1503   1.268       .  A
O1487     Zn1493   1.987       .  S
C1488      O1504   1.267       .  A
C1488      O1501   1.273       .  A
O1489      C1502   1.272       .  A
O1489     Cd1496   2.058       .  S
O1490      C1508   1.270       .  A
O1490     Cd1499   2.045       .  S
O1491      C1505   1.270       .  A
O1491     Cd1495   2.044       .  S
O1492      C1503   1.271       .  A
O1492     Cd1495   2.056       .  S
Zn1493     O1504   1.979       .  S
Zn1493     O1506   1.981       .  S
Zn1493     O1498   1.927       .  S
O1494      C1505   1.269       .  A
O1494     Cd1499   2.042       .  S
Cd1495     O1497   2.045       .  S
Cd1495     O1498   1.986       .  S
Cd1496     O1500   2.051       .  S
Cd1496     O1509   2.049       .  S
Cd1496     O1498   1.988       .  S
O1497      C1507   1.270       .  A
O1498     Cd1499   1.989       .  S
Cd1499     O1501   2.064       .  S
O1500      C1507   1.271       .  A
C1502      O1506   1.268       .  A
C1508      O1509   1.271       .  A
O1510      C1526   1.269       .  A
O1510     Zn1516   1.987       .  S
C1511      O1527   1.270       .  A
C1511      O1524   1.271       .  A
O1512      C1525   1.272       .  A
O1512     Cd1519   2.052       .  S
O1513      C1531   1.271       .  A
O1513     Cd1522   2.052       .  S
O1514      C1528   1.271       .  A
O1514     Cd1518   2.052       .  S
O1515      C1526   1.274       .  A
O1515     Cd1518   2.059       .  S
Zn1516     O1527   1.996       .  S
Zn1516     O1529   1.988       .  S
Zn1516     O1521   1.936       .  S
O1517      C1528   1.269       .  A
O1517     Cd1522   2.042       .  S
Cd1518     O1520   2.057       .  S
Cd1518     O1521   1.985       .  S
Cd1519     O1523   2.052       .  S
Cd1519     O1532   2.049       .  S
Cd1519     O1521   1.986       .  S
O1520      C1530   1.271       .  A
O1521     Cd1522   1.988       .  S
Cd1522     O1524   2.050       .  S
O1523      C1530   1.270       .  A
C1525      O1529   1.269       .  A
C1531      O1532   1.272       .  A
O1533      C1549   1.269       .  A
O1533     Zn1539   1.991       .  S
C1534      O1550   1.271       .  A
C1534      O1547   1.273       .  A
O1535      C1548   1.271       .  A
O1535     Cd1542   2.055       .  S
O1536      C1554   1.271       .  A
O1536     Cd1545   2.049       .  S
O1537      C1551   1.269       .  A
O1537     Cd1541   2.043       .  S
O1538      C1549   1.271       .  A
O1538     Cd1541   2.054       .  S
Zn1539     O1550   1.998       .  S
Zn1539     O1552   1.996       .  S
Zn1539     O1544   1.933       .  S
O1540      C1551   1.270       .  A
O1540     Cd1545   2.050       .  S
Cd1541     O1543   2.038       .  S
Cd1541     O1544   1.987       .  S
Cd1542     O1546   2.050       .  S
Cd1542     O1555   2.047       .  S
Cd1542     O1544   1.986       .  S
O1543      C1553   1.270       .  A
O1544     Cd1545   1.983       .  S
Cd1545     O1547   2.051       .  S
O1546      C1553   1.272       .  A
C1548      O1552   1.270       .  A
C1554      O1555   1.271       .  A
O1556      C1572   1.269       .  A
O1556     Zn1562   1.989       .  S
C1557      O1573   1.270       .  A
C1557      O1570   1.273       .  A
O1558      C1571   1.271       .  A
O1558     Cd1565   2.054       .  S
O1559      C1577   1.270       .  A
O1559     Cd1568   2.046       .  S
O1560      C1574   1.271       .  A
O1560     Cd1564   2.056       .  S
O1561      C1572   1.273       .  A
O1561     Cd1564   2.065       .  S
Zn1562     O1573   1.995       .  S
Zn1562     O1575   1.987       .  S
Zn1562     O1567   1.935       .  S
O1563      C1574   1.270       .  A
O1563     Cd1568   2.051       .  S
Cd1564     O1566   2.051       .  S
Cd1564     O1567   1.989       .  S
Cd1565     O1569   2.051       .  S
Cd1565     O1578   2.046       .  S
Cd1565     O1567   1.989       .  S
O1566      C1576   1.271       .  A
O1567     Cd1568   1.984       .  S
Cd1568     O1570   2.051       .  S
O1569      C1576   1.271       .  A
C1571      O1575   1.269       .  A
C1577      O1578   1.270       .  A
O1579      C1595   1.269       .  A
O1579     Zn1585   1.990       .  S
C1580      O1596   1.270       .  A
C1580      O1593   1.274       .  A
O1581      C1594   1.271       .  A
O1581     Cd1588   2.052       .  S
O1582      C1600   1.271       .  A
O1582     Cd1591   2.052       .  S
O1583      C1597   1.271       .  A
O1583     Cd1587   2.052       .  S
O1584      C1595   1.271       .  A
O1584     Cd1587   2.055       .  S
Zn1585     O1596   1.988       .  S
Zn1585     O1598   1.984       .  S
Zn1585     O1590   1.934       .  S
O1586      C1597   1.271       .  A
O1586     Cd1591   2.050       .  S
Cd1587     O1589   2.045       .  S
Cd1587     O1590   1.987       .  S
Cd1588     O1592   2.050       .  S
Cd1588     O1601   2.047       .  S
Cd1588     O1590   1.987       .  S
O1589      C1599   1.271       .  A
O1590     Cd1591   1.985       .  S
Cd1591     O1593   2.058       .  S
O1592      C1599   1.272       .  A
C1594      O1598   1.268       .  A
C1600      O1601   1.270       .  A
O1602      C1618   1.268       .  A
O1602     Zn1608   1.982       .  S
C1603      O1619   1.268       .  A
C1603      O1616   1.271       .  A
O1604      C1617   1.272       .  A
O1604     Cd1611   2.057       .  S
O1605      C1623   1.271       .  A
O1605     Cd1614   2.053       .  S
O1606      C1620   1.271       .  A
O1606     Cd1610   2.052       .  S
O1607      C1618   1.272       .  A
O1607     Cd1610   2.058       .  S
Zn1608     O1619   1.986       .  S
Zn1608     O1621   1.985       .  S
Zn1608     O1613   1.930       .  S
O1609      C1620   1.271       .  A
O1609     Cd1614   2.052       .  S
Cd1610     O1612   2.052       .  S
Cd1610     O1613   1.990       .  S
Cd1611     O1615   2.057       .  S
Cd1611     O1624   2.048       .  S
Cd1611     O1613   1.989       .  S
O1612      C1622   1.271       .  A
O1613     Cd1614   1.990       .  S
Cd1614     O1616   2.058       .  S
O1615      C1622   1.271       .  A
C1617      O1621   1.268       .  A
C1623      O1624   1.270       .  A
