geometry optimzed in LAMMPS
_audit_creation_date              2020-12-01 
_audit_creation_method            'lammps2cif' 
_symmetry_space_group_name_H-M    'P1' 
_symmetry_Int_Tables_number       1 
_symmetry_cell_setting            triclinic 
loop_ 
_symmetry_equiv_pos_as_xyz 
  x,y,z 
_cell_length_a                    51.20527331 
_cell_length_b                    30.505647543282166 
_cell_length_c                    117.28019072899322 
_cell_angle_alpha                 90.21464351951577 
_cell_angle_beta                  89.95723234716002 
_cell_angle_gamma                 89.96414464486654 
loop_ 
_atom_site_label 
_atom_site_type_symbol 
_atom_site_fract_x 
_atom_site_fract_y 
_atom_site_fract_z 
_atom_site_charge 
O1          O  0.73017571  0.92040253  0.19049879    -0.72800
O2          O  0.73872916  0.97036642  0.15833503    -0.73800
O3          O  0.77013069  0.91979811  0.17357111    -0.62400
O4          O  0.69863245  0.96674895  0.17510718    -0.70800
O5          O  0.71257716  0.03070836  0.18188968    -0.70300
O6          O  0.78593092  0.97990744  0.18178286    -0.61600
O7          O  0.75486031  0.03045308  0.16616827    -0.74100
O8          O  0.74377782  0.98449024  0.19729822    -0.72900
Cu9        Cu  0.73400133  0.94218051  0.17405135     1.04600
Cu10       Cu  0.74997093  0.00859700  0.18195611     1.04300
C11         C  0.73488461  0.94610945  0.19893707     0.93400
C12         C  0.74805872  0.00922598  0.15729678     0.92600
C13         C  0.78913544  0.94102639  0.17784199     0.84700
C14         C  0.69398782  0.00488697  0.17901518     0.91000
O15         O  0.70613987  0.85555090  0.32052294    -0.72800
O16         O  0.70901985  0.88357746  0.28773255    -0.73800
O17         O  0.74066523  0.83399538  0.30258332    -0.62400
O18         O  0.67518525  0.90823554  0.30571732    -0.70800
O19         O  0.70036616  0.96494463  0.31009375    -0.70300
O20         O  0.76411161  0.89387688  0.30604806    -0.61600
O21         O  0.73256204  0.94299735  0.29105407    -0.74100
O22         O  0.73146867  0.91173858  0.32491165    -0.72900
Cu23       Cu  0.70682962  0.86843147  0.30403042     1.04600
Cu24       Cu  0.73287810  0.93057344  0.30818205     1.04300
C25         C  0.71893950  0.87729212  0.32794044     0.93400
C26         C  0.72131371  0.91686112  0.28401297     0.92600
C27         C  0.76272880  0.85319877  0.30375605     0.84700
C28         C  0.67778960  0.94871984  0.30843756     0.91000
O29         O  0.00413888  0.61741155  0.18407028    -0.72800
O30         O  0.93782662  0.69141996  0.18450132    -0.73800
O31         O  0.96608319  0.64205321  0.16774005    -0.62400
O32         O  0.97528772  0.66316512  0.20079996    -0.70800
O33         O  0.99835185  0.72341169  0.19761295    -0.70300
O34         O  0.98978470  0.70023684  0.16337478    -0.61600
O35         O  0.96216759  0.74930677  0.18044971    -0.74100
O36         O  0.02645895  0.67831297  0.18060375    -0.72900
Cu37       Cu  0.96990887  0.65153972  0.18436280     1.04600
Cu38       Cu  0.99488623  0.71497678  0.18033021     1.04300
C39         C  0.02588690  0.63735309  0.18256324     0.93400
C40         C  0.94002620  0.73277865  0.18281449     0.92600
C41         C  0.97655690  0.66651080  0.16025745     0.84700
C42         C  0.98883937  0.69509548  0.20453107     0.91000
O43         O  0.00271457  0.78815264  0.32467924    -0.72800
O44         O  0.00778682  0.74565520  0.29269159    -0.73800
O45         O  0.96901431  0.79068009  0.30555261    -0.62400
O46         O  0.04094459  0.74011410  0.31185112    -0.70800
O47         O  0.02151405  0.67850103  0.31718962    -0.70300
O48         O  0.95197415  0.72695850  0.31077489    -0.61600
O49         O  0.98917894  0.68256045  0.29744757    -0.74100
O50         O  0.98410429  0.72648018  0.33031322    -0.72900
Cu51       Cu  0.00583841  0.76836471  0.30856153     1.04600
Cu52       Cu  0.98620189  0.70139310  0.31414557     1.04300
C53         C  0.99208646  0.76541768  0.33252272     0.93400
C54         C  0.99892930  0.70812975  0.28990730     0.92600
C55         C  0.94915811  0.76585164  0.30711469     0.84700
C56         C  0.04220383  0.70048999  0.31538248     0.91000
O57         O  0.41840767  0.12672831  0.17769853    -0.72800
O58         O  0.48359075  0.05245646  0.18194730    -0.73800
O59         O  0.45125331  0.10302764  0.19629705    -0.62400
O60         O  0.45044729  0.07246626  0.16345702    -0.70800
O61         O  0.47614468  0.12858337  0.15932981    -0.70300
O62         O  0.47458567  0.16289621  0.19295457    -0.61600
O63         O  0.50691990  0.11261489  0.17875012    -0.74100
O64         O  0.44395001  0.18291956  0.17333746    -0.72900
Cu65       Cu  0.44988663  0.08677389  0.17994458     1.04600
Cu66       Cu  0.47609623  0.14890879  0.17592637     1.04300
C67         C  0.42126979  0.16701206  0.17488408     0.93400
C68         C  0.50559882  0.07214265  0.18120237     0.92600
C69         C  0.46360229  0.13646240  0.19995467     0.84700
C70         C  0.46400886  0.09376385  0.15624172     0.91000
O71         O  0.49003252  0.20728569  0.28750162    -0.72800
O72         O  0.49252892  0.25364614  0.31912274    -0.73800
O73         O  0.52652163  0.19987097  0.30531708    -0.62400
O74         O  0.45564509  0.25696327  0.30119888    -0.70800
O75         O  0.43731546  0.19584824  0.30744504    -0.70300
O76         O  0.50620438  0.14079059  0.31179650    -0.61600
O77         O  0.47292173  0.19454223  0.32585243    -0.74100
O78         O  0.47067081  0.14622840  0.29317795    -0.72900
Cu79       Cu  0.49192857  0.23150012  0.30312511     1.04600
Cu80       Cu  0.47121659  0.16718403  0.30982999     1.04300
C81         C  0.47980700  0.17030687  0.28515749     0.93400
C82         C  0.48251138  0.23294105  0.32747727     0.92600
C83         C  0.52715553  0.16023383  0.30888243     0.84700
C84         C  0.43521887  0.23464702  0.30361216     0.91000
O85         O  0.23549652  0.45213087  0.15875422    -0.72800
O86         O  0.22913741  0.41495052  0.19199277    -0.73800
O87         O  0.20197060  0.47098428  0.17737822    -0.62400
O88         O  0.26238256  0.39240208  0.17334505    -0.70800
O89         O  0.29007931  0.44477400  0.17819802    -0.70300
O90         O  0.22782000  0.52576981  0.18277309    -0.61600
O91         O  0.25689280  0.46782732  0.19673411    -0.74100
O92         O  0.26175210  0.50547258  0.16433567    -0.72900
Cu93       Cu  0.23145797  0.43065180  0.17515906     1.04600
Cu94       Cu  0.26016708  0.48779242  0.18065381     1.04300
C95         C  0.24944469  0.48583327  0.15638693     0.93400
C96         C  0.24171551  0.43664914  0.19958533     0.92600
C97         C  0.20501612  0.51010765  0.18088364     0.84700
C98         C  0.28571746  0.40503782  0.17519627     0.91000
O99         O  0.20560128  0.48577971  0.31079625    -0.72800
O100        O  0.26188594  0.39937522  0.30657422    -0.73800
O101        O  0.23338638  0.45259682  0.29155011    -0.62400
O102        O  0.23408106  0.42923777  0.32569808    -0.70800
O103        O  0.20455047  0.37722315  0.32299177    -0.70300
O104        O  0.20396461  0.40018136  0.28943662    -0.61600
O105        O  0.23322157  0.34546681  0.30400964    -0.74100
O106        O  0.17556033  0.43431950  0.30835393    -0.72900
Cu107      Cu  0.23463164  0.44371646  0.30874379     1.04600
Cu108      Cu  0.20317491  0.38759046  0.30613193     1.04300
C109        C  0.18171839  0.47441799  0.31013540     0.93400
C110        C  0.25673786  0.35926707  0.30467462     0.92600
C111        C  0.21905085  0.42885857  0.28505180     0.84700
C112        C  0.21975448  0.39835467  0.32965086     0.91000
O113        O  0.21550883  0.89958549  0.82365414    -0.72800
O114        O  0.21711924  0.93260798  0.79097345    -0.73800
O115        O  0.24910029  0.87980658  0.80494936    -0.62400
O116        O  0.18458008  0.95562159  0.80973434    -0.70800
O117        O  0.21084238  0.01105398  0.81391662    -0.70300
O118        O  0.27322432  0.93815167  0.80910073    -0.61600
O119        O  0.24260642  0.98963054  0.79467217    -0.74100
O120        O  0.24124937  0.95538954  0.82821878    -0.72900
Cu121      Cu  0.21560391  0.91495091  0.80721668     1.04600
Cu122      Cu  0.24273046  0.97561493  0.81166051     1.04300
C123        C  0.22818081  0.92133217  0.83110468     0.93400
C124        C  0.23065045  0.96495519  0.78750559     0.92600
C125        C  0.27145515  0.89823635  0.80605406     0.84700
C126        C  0.18791887  0.99582590  0.81261238     0.91000
O127        O  0.23223920  0.04387303  0.68386371    -0.72800
O128        O  0.29589524  0.96620697  0.67902299    -0.73800
O129        O  0.26351665  0.02013300  0.66483767    -0.62400
O130        O  0.26486522  0.99351767  0.69784812    -0.70800
O131        O  0.23972599  0.93515394  0.69539132    -0.70300
O132        O  0.23661639  0.96459261  0.66159000    -0.61600
O133        O  0.26928490  0.91035127  0.67554205    -0.74100
O134        O  0.20751704  0.98479303  0.68132771    -0.72900
Cu135      Cu  0.26521043  0.00774637  0.68142765     1.04600
Cu136      Cu  0.23759109  0.94651673  0.67829157     1.04300
C137        C  0.20982525  0.02526569  0.68375699     0.93400
C138        C  0.29229014  0.92559511  0.67667397     0.92600
C139        C  0.24884607  0.99860648  0.65806372     0.84700
C140        C  0.25155344  0.96213566  0.70201346     0.91000
O141        O  0.44565187  0.72637237  0.80538059    -0.72800
O142        O  0.50750521  0.65334380  0.81193506    -0.73800
O143        O  0.47757801  0.71466191  0.82479072    -0.62400
O144        O  0.47603623  0.66754981  0.79238975    -0.70800
O145        O  0.50089194  0.72350525  0.78718718    -0.70300
O146        O  0.50444147  0.76698404  0.81905150    -0.61600
O147        O  0.53394029  0.70590881  0.80579291    -0.74100
O148        O  0.47080301  0.78261548  0.80046973    -0.72900
Cu149      Cu  0.47584279  0.68854001  0.80884557     1.04600
Cu150      Cu  0.50347904  0.74662666  0.80295745     1.04300
C151        C  0.44822437  0.76569100  0.80198132     0.93400
C152        C  0.53036507  0.66721085  0.80966672     0.92600
C153        C  0.49116358  0.74893584  0.82694935     0.84700
C154        C  0.48827703  0.68884225  0.78465450     0.91000
O155        O  0.42559615  0.64828989  0.67733584    -0.72800
O156        O  0.48963576  0.57009159  0.68054784    -0.73800
O157        O  0.45746097  0.61797836  0.69565341    -0.62400
O158        O  0.45727920  0.59733247  0.66216597    -0.70800
O159        O  0.48408615  0.65344435  0.65946286    -0.70300
O160        O  0.48230502  0.67691439  0.69353890    -0.61600
O161        O  0.51409283  0.62972634  0.67857715    -0.74100
O162        O  0.45229703  0.70424219  0.67450368    -0.72900
Cu163      Cu  0.45645725  0.60642942  0.67897202     1.04600
Cu164      Cu  0.48393282  0.66814975  0.67639660     1.04300
C165        C  0.42920813  0.68923803  0.67549347     0.93400
C166        C  0.51202313  0.58881927  0.68036993     0.92600
C167        C  0.47057256  0.64937484  0.69997604     0.84700
C168        C  0.47104235  0.62092002  0.65552692     0.91000
O169        O  0.71548498  0.49969489  0.68086051    -0.72800
O170        O  0.78276163  0.42963534  0.67788258    -0.73800
O171        O  0.75266086  0.48519533  0.66309968    -0.62400
O172        O  0.74628545  0.44753516  0.69549483    -0.70800
O173        O  0.72384229  0.38859809  0.69034658    -0.70300
O174        O  0.72912550  0.42833421  0.65733836    -0.61600
O175        O  0.75909800  0.37305974  0.67202545    -0.74100
O176        O  0.69396801  0.43972383  0.67560476    -0.72900
Cu177      Cu  0.75023194  0.46758565  0.67946414     1.04600
Cu178      Cu  0.72589058  0.40539903  0.67358108     1.04300
C179        C  0.69401731  0.47926704  0.67904345     0.93400
C180        C  0.78109351  0.38943919  0.67474821     0.92600
C181        C  0.74122955  0.46408661  0.65513027     0.84700
C182        C  0.73352499  0.41317909  0.69815498     0.91000
O183        O  0.68977672  0.45147686  0.80857081    -0.72800
O184        O  0.75359028  0.38142278  0.80417907    -0.73800
O185        O  0.71930789  0.42374166  0.78924163    -0.62400
O186        O  0.72407842  0.40623166  0.82345705    -0.70800
O187        O  0.69856284  0.34785547  0.82168453    -0.70300
O188        O  0.69613076  0.36260261  0.78799512    -0.61600
O189        O  0.73040391  0.31989560  0.80328180    -0.74100
O190        O  0.66461677  0.39279724  0.80651272    -0.72900
Cu191      Cu  0.72238913  0.41792806  0.80641824     1.04600
Cu192      Cu  0.69647484  0.35373801  0.80481320     1.04300
C193        C  0.66719704  0.43404241  0.80821340     0.93400
C194        C  0.75232752  0.34000112  0.80309856     0.92600
C195        C  0.70799219  0.39428744  0.78319765     0.84700
C196        C  0.71203272  0.37369310  0.82789913     0.91000
O197        O  0.93125242  0.13699766  0.68307190    -0.72800
O198        O  0.00471209  0.08730958  0.68788717    -0.73800
O199        O  0.96580255  0.12595840  0.70190392    -0.62400
O200        O  0.96932140  0.09409634  0.66918150    -0.70800
O201        O  0.98634663  0.15833426  0.66462755    -0.70300
O202        O  0.98402633  0.19057283  0.69849738    -0.61600
O203        O  0.02038087  0.15287176  0.68355747    -0.74100
O204        O  0.95019625  0.20066310  0.67933081    -0.72900
Cu205      Cu  0.96710476  0.10877887  0.68563150     1.04600
Cu206      Cu  0.98570174  0.17788193  0.68135956     1.04300
C207        C  0.92965200  0.17761063  0.68035274     0.93400
C208        C  0.02412853  0.11343706  0.68657511     0.92600
C209        C  0.97498493  0.16217604  0.70551628     0.84700
C210        C  0.97858152  0.11989971  0.66170220     0.91000
O211        O  0.94388694  0.22208470  0.81322990    -0.72800
O212        O  0.01563775  0.17857850  0.81671367    -0.73800
O213        O  0.98143703  0.22845604  0.83089140    -0.62400
O214        O  0.97804284  0.17596090  0.79878732    -0.70800
O215        O  0.99258761  0.23953847  0.79217267    -0.70300
O216        O  0.99785486  0.28907013  0.82338599    -0.61600
O217        O  0.03215861  0.23909501  0.80917814    -0.74100
O218        O  0.95802714  0.28554278  0.80642316    -0.72900
Cu219      Cu  0.97934468  0.19910067  0.81520023     1.04600
Cu220      Cu  0.99579913  0.26550612  0.80759115     1.04300
C221        C  0.93925885  0.25969847  0.80905353     0.93400
C222        C  0.03523968  0.20065767  0.81334234     0.92600
C223        C  0.99028241  0.26756410  0.83206553     0.84700
C224        C  0.98379044  0.20109457  0.79040931     0.91000
O225        O  0.72664616  0.58252060  0.55153747    -0.72800
O226        O  0.79258352  0.65337737  0.55773691    -0.73800
O227        O  0.75961772  0.59604610  0.57072201    -0.62400
O228        O  0.76018208  0.63654791  0.53861439    -0.70800
O229        O  0.73660614  0.69482735  0.54307306    -0.70300
O230        O  0.73490466  0.65190339  0.57603875    -0.61600
O231        O  0.76762410  0.70929589  0.56297018    -0.74100
O232        O  0.70370450  0.64172492  0.55622644    -0.72900
Cu233      Cu  0.76070639  0.61518445  0.55454402     1.04600
Cu234      Cu  0.73499592  0.67648384  0.55980233     1.04300
C235        C  0.70473518  0.60239531  0.55262715     0.93400
C236        C  0.79018952  0.69323485  0.56108698     0.92600
C237        C  0.74669288  0.61601118  0.57845921     0.84700
C238        C  0.74804842  0.67102821  0.53554312     0.91000
O239        O  0.71770898  0.73750588  0.44671184    -0.72800
O240        O  0.71538706  0.76641892  0.41391090    -0.73800
O241        O  0.68398510  0.71370619  0.42828877    -0.62400
O242        O  0.75009911  0.78663550  0.43215028    -0.70800
O243        O  0.77309388  0.72658400  0.42837375    -0.70300
O244        O  0.70920442  0.65679414  0.42405031    -0.61600
O245        O  0.73998259  0.70917426  0.40936246    -0.74100
O246        O  0.74127500  0.67783548  0.44319362    -0.72900
Cu247      Cu  0.71588497  0.75307782  0.43037973     1.04600
Cu248      Cu  0.74166844  0.69050269  0.42609172     1.04300
C249        C  0.73039734  0.70439050  0.45025459     0.93400
C250        C  0.72684572  0.74310937  0.40640551     0.92600
C251        C  0.68661310  0.67345228  0.42529677     0.84700
C252        C  0.77208944  0.76680344  0.43121724     0.91000
O253        O  0.94627880  0.94313099  0.43010732    -0.72800
O254        O  0.00840626  0.01745696  0.42423631    -0.73800
O255        O  0.97760156  0.95783852  0.41069994    -0.62400
O256        O  0.97666579  0.99892932  0.44367832    -0.70800
O257        O  0.00193612  0.94245685  0.44806821    -0.70300
O258        O  0.00489748  0.90462335  0.41559253    -0.61600
O259        O  0.03493275  0.96371459  0.42940270    -0.74100
O260        O  0.97145496  0.88610079  0.43426432    -0.72900
Cu261      Cu  0.97649488  0.98139805  0.42696967     1.04600
Cu262      Cu  0.00432892  0.92239552  0.43196251     1.04300
C263        C  0.94878296  0.90329416  0.43310765     0.93400
C264        C  0.03143642  0.00328668  0.42609421     0.92600
C265        C  0.99104035  0.92379438  0.40808482     0.84700
C266        C  0.98833120  0.97547544  0.45114244     0.91000
O267        O  0.97910667  0.97795614  0.57672746    -0.72800
O268        O  0.97795313  0.95470862  0.54266224    -0.73800
O269        O  0.00696258  0.00700659  0.55749620    -0.62400
O270        O  0.94987244  0.92170516  0.56180369    -0.70800
O271        O  0.92015848  0.97326999  0.55926909    -0.70300
O272        O  0.97887160  0.06218624  0.55584687    -0.61600
O273        O  0.94971808  0.00935183  0.54079310    -0.74100
O274        O  0.94905832  0.02947547  0.57437137    -0.72900
Cu275      Cu  0.97929833  0.96333680  0.55979529     1.04600
Cu276      Cu  0.94825843  0.02026004  0.55752861     1.04300
C277        C  0.96468802  0.00855470  0.58082733     0.93400
C278        C  0.96460679  0.98045747  0.53633334     0.92600
C279        C  0.00229130  0.04744244  0.55586066     0.84700
C280        C  0.92596191  0.93295672  0.56099609     0.91000
O281        O  0.26739427  0.26358081  0.43447887    -0.72800
O282        O  0.20182947  0.20071519  0.42786065    -0.73800
O283        O  0.23801919  0.24847053  0.41413441    -0.62400
O284        O  0.23070526  0.21979359  0.44811561    -0.70800
O285        O  0.20894131  0.28175005  0.45026886    -0.70300
O286        O  0.21554028  0.30930425  0.41736673    -0.61600
O287        O  0.17857220  0.26100345  0.43063638    -0.74100
O288        O  0.24634062  0.32654668  0.43702995    -0.72900
Cu289      Cu  0.23519427  0.23095253  0.43101398     1.04600
Cu290      Cu  0.21149967  0.29670942  0.43387918     1.04300
C291        C  0.26750313  0.30414327  0.43701710     0.93400
C292        C  0.17976181  0.21989334  0.42836987     0.92600
C293        C  0.22793255  0.28435210  0.41050165     0.84700
C294        C  0.21909336  0.24764510  0.45461272     0.91000
O295        O  0.22572220  0.19021155  0.58055652    -0.72800
O296        O  0.22254252  0.23715781  0.54805634    -0.73800
O297        O  0.18857745  0.19193726  0.56278547    -0.62400
O298        O  0.25982303  0.23895359  0.56614094    -0.70800
O299        O  0.27740458  0.17745548  0.55954281    -0.70300
O300        O  0.20382771  0.12876630  0.55615702    -0.61600
O301        O  0.23929765  0.17414653  0.54192941    -0.74100
O302        O  0.24216960  0.12855810  0.57360568    -0.72900
Cu303      Cu  0.22373389  0.21676772  0.56463374     1.04600
Cu304      Cu  0.24135073  0.15003347  0.55761758     1.04300
C305        C  0.23398123  0.15099792  0.58208293     0.93400
C306        C  0.22993863  0.21197379  0.53989010     0.92600
C307        C  0.18457258  0.15360231  0.55885970     0.84700
C308        C  0.27988034  0.21663614  0.56338599     0.91000
O309        O  0.49756082  0.52995589  0.55062958    -0.72800
O310        O  0.43190326  0.45742574  0.55537205    -0.73800
O311        O  0.46424899  0.51239850  0.56926561    -0.62400
O312        O  0.46505139  0.47814420  0.53666633    -0.70800
O313        O  0.48958842  0.42016246  0.54040889    -0.70300
O314        O  0.48864615  0.45516219  0.57397381    -0.61600
O315        O  0.45705296  0.40062445  0.55966078    -0.74100
O316        O  0.52100682  0.47097763  0.55496978    -0.72900
Cu317      Cu  0.46369230  0.49632096  0.55286148     1.04600
Cu318      Cu  0.48974977  0.43449404  0.55741228     1.04300
C319        C  0.51963032  0.51103258  0.55206125     0.93400
C320        C  0.43443935  0.41726242  0.55834394     0.92600
C321        C  0.47721484  0.49113059  0.57668119     0.84700
C322        C  0.47829225  0.44532629  0.53319886     0.91000
O323        O  0.51845539  0.47322968  0.42106990    -0.72800
O324        O  0.45330254  0.40894245  0.42700555    -0.73800
O325        O  0.48743241  0.45620442  0.44083595    -0.62400
O326        O  0.48400501  0.42178497  0.40716529    -0.70800
O327        O  0.50776628  0.36293612  0.41105473    -0.70300
O328        O  0.50991240  0.39525396  0.44395342    -0.61600
O329        O  0.47500101  0.34724663  0.43046156    -0.74100
O330        O  0.54221952  0.41438847  0.42492382    -0.72900
Cu331      Cu  0.48516793  0.44219800  0.42380800     1.04600
Cu332      Cu  0.50965930  0.37789732  0.42764143     1.04300
C333        C  0.54065626  0.45513723  0.42241438     0.93400
C334        C  0.45366183  0.36912627  0.43013989     0.92600
C335        C  0.49794126  0.42890286  0.44774354     0.84700
C336        C  0.49520429  0.38623808  0.40390822     0.91000
O337        O  0.21120987  0.76742869  0.94868997    -0.72800
O338        O  0.21438760  0.80423132  0.91636856    -0.73800
O339        O  0.17769328  0.75576271  0.92964235    -0.62400
O340        O  0.24818965  0.81287683  0.93536095    -0.70800
O341        O  0.26684054  0.74940202  0.93088414    -0.70300
O342        O  0.19859626  0.69465055  0.92489591    -0.61600
O343        O  0.23465145  0.74299738  0.91135387    -0.74100
O344        O  0.23080199  0.70454200  0.94458847    -0.72900
Cu345      Cu  0.21207793  0.78720067  0.93263992     1.04600
Cu346      Cu  0.23329512  0.72065843  0.92774687     1.04300
C347        C  0.22077756  0.73100597  0.95190975     0.93400
C348        C  0.22547587  0.78077203  0.90875507     0.92600
C349        C  0.17737451  0.71571162  0.92631096     0.84700
C350        C  0.26861503  0.78897165  0.93423619     0.91000
O351        O  0.21291916  0.61102551  0.05421503    -0.72800
O352        O  0.28847004  0.65123864  0.05462493    -0.73800
O353        O  0.25438185  0.60826971  0.07051325    -0.62400
O354        O  0.24714213  0.65026429  0.03858664    -0.70800
O355        O  0.23655338  0.71707417  0.04461010    -0.70300
O356        O  0.23966736  0.67159992  0.07729355    -0.61600
O357        O  0.27511344  0.71438943  0.06212046    -0.74100
O358        O  0.20138448  0.67780852  0.05986320    -0.72900
Cu359      Cu  0.25128562  0.62783960  0.05433346     1.04600
Cu360      Cu  0.23786179  0.69746341  0.06125757     1.04300
C361        C  0.19523932  0.63948895  0.05649089     0.93400
C362        C  0.29331020  0.68997583  0.05830072     0.92600
C363        C  0.24766196  0.63228458  0.07894355     0.84700
C364        C  0.24030017  0.68954014  0.03648260     0.91000
O365        O  0.70650624  0.28997623  0.91536396    -0.72800
O366        O  0.70472088  0.26688939  0.94859597    -0.73800
O367        O  0.73790528  0.31498161  0.93410213    -0.62400
O368        O  0.67358027  0.23843004  0.92985843    -0.70800
O369        O  0.70005853  0.18164835  0.92723763    -0.70300
O370        O  0.76228720  0.25546889  0.93152715    -0.61600
O371        O  0.73024331  0.20877460  0.94650817    -0.74100
O372        O  0.73181860  0.23197721  0.91233691    -0.72900
Cu373      Cu  0.70463437  0.27947164  0.93203716     1.04600
Cu374      Cu  0.73182924  0.21729640  0.92928808     1.04300
C375        C  0.71992962  0.26604793  0.90862770     0.93400
C376        C  0.71814623  0.23611056  0.95296049     0.92600
C377        C  0.76026142  0.29617175  0.93372428     0.84700
C378        C  0.67710862  0.19750100  0.92787665     0.91000
O379        O  0.72402288  0.12559627  0.05641241    -0.72800
O380        O  0.78689894  0.20827649  0.05822152    -0.73800
O381        O  0.76076165  0.14884161  0.07366602    -0.62400
O382        O  0.75145134  0.18129531  0.04108579    -0.70800
O383        O  0.72514364  0.23616251  0.04589325    -0.70300
O384        O  0.73395475  0.20176312  0.07926038    -0.61600
O385        O  0.75955141  0.26050687  0.06369856    -0.74100
O386        O  0.69924162  0.18204494  0.06150709    -0.72900
Cu387      Cu  0.75682737  0.16406785  0.05720550     1.04600
Cu388      Cu  0.72873694  0.22204010  0.06279781     1.04300
C389        C  0.70156391  0.14189820  0.05882413     0.93400
C390        C  0.78246781  0.24846374  0.06087022     0.92600
C391        C  0.74834466  0.16854283  0.08160038     0.84700
C392        C  0.73672655  0.21309064  0.03825251     0.91000
O393        O  0.45422511  0.91300002  0.92607463    -0.72800
O394        O  0.51923830  0.97960693  0.92160862    -0.73800
O395        O  0.48724522  0.92741397  0.90721216    -0.62400
O396        O  0.48682623  0.96209508  0.94063264    -0.70800
O397        O  0.51049337  0.90279935  0.94433091    -0.70300
O398        O  0.51050586  0.86883253  0.91183997    -0.61600
O399        O  0.54354573  0.92167338  0.92588361    -0.74100
O400        O  0.47646797  0.85287201  0.93056038    -0.72900
Cu401      Cu  0.48612233  0.94761421  0.92371089     1.04600
Cu402      Cu  0.51109354  0.88440060  0.92825522     1.04300
C403        C  0.45479047  0.87309676  0.92913596     0.93400
C404        C  0.54153117  0.96216152  0.92315268     0.92600
C405        C  0.49905742  0.89200787  0.90434318     0.84700
C406        C  0.49869219  0.93717051  0.94771325     0.91000
O407        O  0.50152391  0.91650764  0.03963894    -0.72800
O408        O  0.49045044  0.93324114  0.07365934    -0.73800
O409        O  0.46534580  0.88430754  0.05592480    -0.62400
O410        O  0.52668498  0.96158136  0.05735611    -0.70800
O411        O  0.50272209  0.02062091  0.05381057    -0.70300
O412        O  0.43910325  0.94069224  0.05266847    -0.61600
O413        O  0.46535978  0.99059862  0.06988439    -0.74100
O414        O  0.47584934  0.97385870  0.03677773    -0.72900
Cu415      Cu  0.49673070  0.92179751  0.05678126     1.04600
Cu416      Cu  0.46973828  0.98335938  0.05318620     1.04300
C417        C  0.49079326  0.94397196  0.03286854     0.93400
C418        C  0.47686572  0.96605606  0.07707547     0.92600
C419        C  0.44267413  0.89933748  0.05383862     0.84700
C420        C  0.52490552  0.00266921  0.05573853     0.91000
O421        O  0.99750324  0.41059388  0.91572640    -0.72800
O422        O  0.99243545  0.45546629  0.94754810    -0.73800
O423        O  0.96120393  0.39972673  0.93384765    -0.62400
O424        O  0.02799529  0.46847656  0.92945834    -0.70800
O425        O  0.00439294  0.52422076  0.92309168    -0.70300
O426        O  0.93893138  0.45807473  0.92806755    -0.61600
O427        O  0.96970360  0.51324212  0.94185213    -0.74100
O428        O  0.97406646  0.46610674  0.90933436    -0.72900
Cu429      Cu  0.99561811  0.43157918  0.93181456     1.04600
Cu430      Cu  0.97103156  0.49240099  0.92532863     1.04300
C431        C  0.98648997  0.43031888  0.90744276     0.93400
C432        C  0.98018240  0.49080586  0.94985656     0.92600
C433        C  0.93949292  0.41906546  0.93187010     0.84700
C434        C  0.02643652  0.50780688  0.92575898     0.91000
O435        O  0.97320171  0.51632533  0.07580695    -0.72800
O436        O  0.97285466  0.49191268  0.04154801    -0.73800
O437        O  0.00584765  0.53571574  0.05708845    -0.62400
O438        O  0.94020083  0.46888818  0.06036005    -0.70800
O439        O  0.91661216  0.52829416  0.05671553    -0.70300
O440        O  0.98399677  0.59791883  0.05452763    -0.61600
O441        O  0.95122322  0.55415216  0.03899205    -0.74100
O442        O  0.94952834  0.57550390  0.07239806    -0.72900
Cu443      Cu  0.97368965  0.50094251  0.05881902     1.04600
Cu444      Cu  0.94940413  0.56596659  0.05559973     1.04300
C445        C  0.96165213  0.55104709  0.07941395     0.93400
C446        C  0.96277186  0.52061647  0.03489983     0.92600
C447        C  0.00551220  0.57681272  0.05531864     0.84700
C448        C  0.91813643  0.48716522  0.05880519     0.91000
C449        C  0.97828320  0.50425285  0.96199129    -0.11800
C450        C  0.95511236  0.52126689  0.96684795     0.03700
C451        C  0.95316587  0.52622720  0.97872306    -0.12300
C452        C  0.97401828  0.51469682  0.98586866     0.18500
C453        C  0.99752330  0.49996143  0.98100890    -0.09400
C454        C  0.99947015  0.49469221  0.96919977    -0.02300
H455        H  0.93504196  0.53784770  0.98243086     0.05100
C456        C  0.97071664  0.51642087  0.99839024     0.20500
H457        H  0.01750401  0.48199097  0.96564583     0.10200
C458        C  0.96437108  0.47794395  0.00432710    -0.15700
C459        C  0.96175157  0.47819230  0.01623817     0.03200
C460        C  0.96551317  0.51749744  0.02236308    -0.11000
C461        C  0.97167153  0.55597249  0.01634633    -0.01100
C462        C  0.97439102  0.55562971  0.00448628    -0.06200
H463        H  0.96137595  0.44765193  0.99965848     0.06200
H464        H  0.97473592  0.58646608  0.02092187     0.09600
Br465      Br  0.02725655  0.48578938  0.99023654    -0.05900
Br466      Br  0.92474220  0.53443595  0.95791772    -0.02900
Br467      Br  0.95142743  0.42492293  0.02360173     0.00000
Br468      Br  0.98373227  0.60913431  0.99697134    -0.04400
C469        C  0.49577829  0.94356604  0.02043102    -0.11800
C470        C  0.50316660  0.90577330  0.01421517     0.03700
C471        C  0.50507926  0.90786111  0.00230722    -0.12300
C472        C  0.50039858  0.94728330  0.99650703     0.18500
C473        C  0.49457538  0.98536580  0.00272973    -0.09400
C474        C  0.49219493  0.98325042  0.01452941    -0.02300
H475        H  0.50981041  0.87845783  0.99752148     0.05100
C476        C  0.50053896  0.94797604  0.98394958     0.20500
H477        H  0.48741403  0.01310400  0.01911088     0.10200
C478        C  0.47704836  0.95582467  0.97812179    -0.15700
C479        C  0.47621345  0.95550490  0.96620693     0.03200
C480        C  0.49915450  0.94660077  0.95999548    -0.11000
C481        C  0.52274267  0.93993142  0.96585594    -0.01100
C482        C  0.52361464  0.94081060  0.97773669    -0.06200
H483        H  0.45920287  0.96137924  0.98288515     0.06200
H484        H  0.54051976  0.93307947  0.96115144     0.09600
Br485      Br  0.49013431  0.04123947  0.99549245    -0.05900
Br486      Br  0.50993326  0.85023490  0.02124187    -0.02900
Br487      Br  0.44297445  0.96361308  0.95896264     0.00000
Br488      Br  0.55671459  0.93240002  0.98507899    -0.04400
C489        C  0.67740271  0.11586975  0.05867621    -0.11800
C490        C  0.65844750  0.12294292  0.06724237     0.03700
C491        C  0.63352799  0.10569388  0.06603852    -0.12300
C492        C  0.62698282  0.08015380  0.05656236     0.18500
C493        C  0.64596557  0.07164106  0.04812002    -0.09400
C494        C  0.67109895  0.08959535  0.04921602    -0.02300
H495        H  0.61912661  0.11186627  0.07263321     0.05100
C496        C  0.60055606  0.06111056  0.05621150     0.20500
H497        H  0.68533045  0.08441188  0.04250603     0.10200
C498        C  0.58229154  0.07545725  0.04809676    -0.15700
C499        C  0.55674412  0.05881238  0.04805818     0.03200
C500        C  0.54932858  0.02786387  0.05634940    -0.11000
C501        C  0.56748889  0.01486243  0.06462574    -0.01100
C502        C  0.59286628  0.03086994  0.06457784    -0.06200
H503        H  0.58801855  0.09924002  0.04173161     0.06200
H504        H  0.56213689  0.99078347  0.07098495     0.09600
Br505      Br  0.63840540  0.03568825  0.03509080    -0.05900
Br506      Br  0.66532062  0.15543985  0.08096897    -0.02900
Br507      Br  0.53366094  0.07655732  0.03604931     0.00000
Br508      Br  0.61664177  0.00848524  0.07581201    -0.04400
C509        C  0.89474582  0.45913962  0.05932006    -0.11800
C510        C  0.87897310  0.45181420  0.04966631     0.03700
C511        C  0.86057869  0.41774554  0.04973301    -0.12300
C512        C  0.85722165  0.39128119  0.05942372     0.18500
C513        C  0.87208423  0.40032602  0.06926144    -0.09400
C514        C  0.89088978  0.43351373  0.06907863    -0.02300
H515        H  0.84924342  0.41126044  0.04211644     0.05100
C516        C  0.83840774  0.35422471  0.05915895     0.20500
H517        H  0.90296251  0.43883071  0.07654219     0.10200
C518        C  0.84733123  0.31101646  0.06079148    -0.15700
C519        C  0.82981706  0.27562707  0.06135865     0.03200
C520        C  0.80278125  0.28320086  0.06010556    -0.11000
C521        C  0.79416636  0.32641705  0.05811867    -0.01100
C522        C  0.81153595  0.36157160  0.05769029    -0.06200
H523        H  0.86802273  0.30495774  0.06189675     0.06200
H524        H  0.77356995  0.33324572  0.05698027     0.09600
Br525      Br  0.86721667  0.36873637  0.08322490    -0.05900
Br526      Br  0.88333302  0.48502337  0.03593292    -0.02900
Br527      Br  0.84388106  0.21878161  0.06464905     0.00000
Br528      Br  0.79717831  0.41923569  0.05574548    -0.04400
C529        C  0.78449144  0.32020440  0.93591292    -0.11800
C530        C  0.80234641  0.30425204  0.94405903     0.03700
C531        C  0.82776865  0.32062084  0.94437692    -0.12300
C532        C  0.83566975  0.35277650  0.93664751     0.18500
C533        C  0.81754231  0.37024394  0.92885885    -0.09400
C534        C  0.79200253  0.35400622  0.92856291    -0.02300
H535        H  0.84158272  0.30753874  0.95047757     0.05100
C536        C  0.86311591  0.36683408  0.93653952     0.20500
H537        H  0.77852539  0.36591086  0.92216221     0.10200
C538        C  0.88121436  0.34366051  0.92983591    -0.15700
C539        C  0.90683344  0.35892929  0.92861423     0.03200
C540        C  0.91444660  0.39768313  0.93422329    -0.11000
C541        C  0.89653131  0.41983469  0.94124588    -0.01100
C542        C  0.87102696  0.40455737  0.94248172    -0.06200
H543        H  0.87508314  0.31466764  0.92519626     0.06200
H544        H  0.90223141  0.44982785  0.94554258     0.09600
Br545      Br  0.82742263  0.41432926  0.91806491    -0.05900
Br546      Br  0.79297361  0.25940202  0.95477173    -0.02900
Br547      Br  0.92976826  0.32870599  0.91830026     0.00000
Br548      Br  0.84728670  0.43707643  0.95194261    -0.04400
C549        C  0.65518700  0.16693259  0.92612299    -0.11800
C550        C  0.63429955  0.16326550  0.93388766     0.03700
C551        C  0.61687900  0.12796717  0.93293116    -0.12300
C552        C  0.61990162  0.09632544  0.92427931     0.18500
C553        C  0.63999194  0.10139498  0.91620274    -0.09400
C554        C  0.65747462  0.13620723  0.91723497    -0.02300
H555        H  0.60116324  0.12475759  0.93906131     0.05100
C556        C  0.60164542  0.05882338  0.92361555     0.20500
H557        H  0.67346839  0.13864290  0.91121080     0.10200
C558        C  0.58471942  0.05577016  0.91426800    -0.15700
C559        C  0.56641705  0.02201943  0.91352165     0.03200
C560        C  0.56456788  0.99076745  0.92231093    -0.11000
C561        C  0.58228574  0.99252719  0.93141920    -0.01100
C562        C  0.60073088  0.02634412  0.93214129    -0.06200
H563        H  0.58548544  0.08022369  0.90759861     0.06200
H564        H  0.58088160  0.96896912  0.93828460     0.09600
Br565      Br  0.64533714  0.06045243  0.90394825    -0.05900
Br566      Br  0.62990348  0.20329865  0.94639458    -0.02900
Br567      Br  0.54437247  0.02004042  0.90028784     0.00000
Br568      Br  0.62395501  0.02712760  0.94497227    -0.04400
C569        C  0.72023850  0.23359791  0.96556367    -0.11800
C570        C  0.71896891  0.27181805  0.97248723     0.03700
C571        C  0.72114960  0.26847096  0.98432528    -0.12300
C572        C  0.72497604  0.22786438  0.98952724     0.18500
C573        C  0.72644126  0.18978351  0.98272726    -0.09400
C574        C  0.72420035  0.19286238  0.97084145    -0.02300
H575        H  0.72041076  0.29792128  0.98951434     0.05100
C576        C  0.72814712  0.22632136  0.00204507     0.20500
H577        H  0.72533491  0.16327895  0.96572741     0.10200
C578        C  0.70606564  0.22937602  0.00909741    -0.15700
C579        C  0.70845582  0.22707882  0.02099040     0.03200
C580        C  0.73332977  0.22191213  0.02596564    -0.11000
C581        C  0.75543087  0.21999878  0.01886292    -0.01100
C582        C  0.75302654  0.22258493  0.00701143    -0.06200
H583        H  0.68686122  0.23251281  0.00531586     0.06200
H584        H  0.77467217  0.21598692  0.02255691     0.09600
Br585      Br  0.73116902  0.13298163  0.98936245    -0.05900
Br586      Br  0.71632900  0.33025846  0.96648797    -0.02900
Br587      Br  0.67703718  0.22703688  0.02991577     0.00000
Br588      Br  0.78419199  0.22101737  0.99791332    -0.04400
C589        C  0.03069428  0.59867865  0.05417673    -0.11800
C590        C  0.04445100  0.61196424  0.06395611     0.03700
C591        C  0.07118165  0.62045293  0.06321694    -0.12300
C592        C  0.08439292  0.61561676  0.05281443     0.18500
C593        C  0.07038976  0.60442918  0.04291079    -0.09400
C594        C  0.04363405  0.59591914  0.04366012    -0.02300
H595        H  0.08190227  0.62924760  0.07085212     0.05100
C596        C  0.11297454  0.62007635  0.05268826     0.20500
H597        H  0.03323856  0.58452780  0.03616712     0.10200
C598        C  0.12840997  0.58584633  0.05698131    -0.15700
C599        C  0.15552793  0.59044751  0.05791340     0.03200
C600        C  0.16731688  0.63023059  0.05472551    -0.11000
C601        C  0.15177630  0.66390525  0.05015006    -0.01100
C602        C  0.12485462  0.65895787  0.04902552    -0.06200
H603        H  0.11923114  0.55580707  0.05981965     0.06200
H604        H  0.16063467  0.69447603  0.04749667     0.09600
Br605      Br  0.08737389  0.59707686  0.02844268    -0.05900
Br606      Br  0.02789924  0.61526907  0.07861891    -0.02900
Br607      Br  0.17507519  0.54296232  0.06435695     0.00000
Br608      Br  0.10498433  0.70659161  0.04281471    -0.04400
C609        C  0.42078805  0.86790363  0.05295896    -0.11800
C610        C  0.42450996  0.82559898  0.04823028     0.03700
C611        C  0.40458686  0.79446253  0.04882911    -0.12300
C612        C  0.38059281  0.80468801  0.05389409     0.18500
C613        C  0.37635639  0.84745355  0.05814028    -0.09400
C614        C  0.39637693  0.87868997  0.05762726    -0.02300
H615        H  0.40789477  0.76190375  0.04539286     0.05100
C616        C  0.36047013  0.77007050  0.05487200     0.20500
H617        H  0.39311252  0.91102083  0.06120757     0.10200
C618        C  0.35292079  0.75566436  0.06573802    -0.15700
C619        C  0.33230431  0.72604413  0.06702864     0.03200
C620        C  0.31942916  0.70939591  0.05734462    -0.11000
C621        C  0.32818521  0.72135003  0.04646101    -0.01100
C622        C  0.34841193  0.75176210  0.04515746    -0.06200
H623        H  0.36241867  0.76887371  0.07325326     0.06200
H624        H  0.31787465  0.70974554  0.03896769     0.09600
Br625      Br  0.34351372  0.86481995  0.06462208    -0.05900
Br626      Br  0.45591580  0.80851293  0.04042389    -0.02900
Br627      Br  0.32145622  0.71082571  0.08216071     0.00000
Br628      Br  0.35683832  0.77073918  0.03001090    -0.04400
C629        C  0.29489124  0.80608960  0.93654388    -0.11800
C630        C  0.31357393  0.77961159  0.94208613     0.03700
C631        C  0.33983498  0.79146678  0.94193321    -0.12300
C632        C  0.34792903  0.82962270  0.93639414     0.18500
C633        C  0.32910692  0.85773376  0.93154570    -0.09400
C634        C  0.30269353  0.84591768  0.93170345    -0.02300
H635        H  0.35415573  0.76989644  0.94576166     0.05100
C636        C  0.37616067  0.83707369  0.93485657     0.20500
H637        H  0.28851656  0.86650898  0.92743954     0.10200
C638        C  0.38668675  0.83420472  0.92383483    -0.15700
C639        C  0.41317894  0.84204131  0.92194046     0.03200
C640        C  0.42963504  0.85196334  0.93117963    -0.11000
C641        C  0.41942203  0.85273023  0.94227303    -0.01100
C642        C  0.39280973  0.84536915  0.94417231    -0.06200
H643        H  0.37409548  0.82693331  0.91665130     0.06200
H644        H  0.43183021  0.86183016  0.94937824     0.09600
Br645      Br  0.33866992  0.91166811  0.92429680    -0.05900
Br646      Br  0.30448007  0.72631610  0.94981117    -0.02900
Br647      Br  0.42587736  0.84140914  0.90654530     0.00000
Br648      Br  0.37972461  0.85068553  0.95945087    -0.04400
C649        C  0.04977229  0.53587540  0.92474021    -0.11800
C650        C  0.06926340  0.53724830  0.93323465     0.03700
C651        C  0.08874212  0.56934719  0.93275069    -0.12300
C652        C  0.08920496  0.60024707  0.92391814     0.18500
C653        C  0.07044206  0.59772411  0.91518895    -0.09400
C654        C  0.05085192  0.56596945  0.91570653    -0.02300
H655        H  0.10339175  0.57070993  0.93940540     0.05100
C656        C  0.10985512  0.63404008  0.92383594     0.20500
H657        H  0.03602238  0.56536480  0.90912025     0.10200
C658        C  0.12912645  0.63210755  0.91538589    -0.15700
C659        C  0.15028837  0.66086817  0.91558695     0.03200
C660        C  0.15265380  0.69196930  0.92447727    -0.11000
C661        C  0.13258986  0.69557078  0.93258286    -0.01100
C662        C  0.11127202  0.66681372  0.93232316    -0.06200
H663        H  0.12799147  0.60741655  0.90873803     0.06200
H664        H  0.13411876  0.71928476  0.93945022     0.09600
Br665      Br  0.06998590  0.63814767  0.90268876    -0.05900
Br666      Br  0.06916271  0.49891859  0.94618339    -0.02900
Br667      Br  0.17523482  0.65623719  0.90341495     0.00000
Br668      Br  0.08476568  0.67306086  0.94378636    -0.04400
C669        C  0.22153504  0.72158064  0.96429963    -0.11800
C670        C  0.20275241  0.73938268  0.97187672     0.03700
C671        C  0.20652212  0.73652475  0.98365676    -0.12300
C672        C  0.22861392  0.71578474  0.98815550     0.18500
C673        C  0.24653393  0.69563751  0.98066662    -0.09400
C674        C  0.24296765  0.69879471  0.96884756    -0.02300
H675        H  0.19206191  0.75047425  0.98936611     0.05100
C676        C  0.23122158  0.71230357  0.00069277     0.20500
H677        H  0.25739923  0.68441210  0.96321092     0.10200
C678        C  0.21384939  0.68500215  0.00652236    -0.15700
C679        C  0.21598364  0.67908151  0.01827150     0.03200
C680        C  0.23552957  0.70123280  0.02448708    -0.11000
C681        C  0.25233739  0.73005466  0.01876289    -0.01100
C682        C  0.25031284  0.73568852  0.00690805    -0.06200
H683        H  0.19888473  0.66739973  0.00185060     0.06200
H684        H  0.26758528  0.74693498  0.02343379     0.09600
Br685      Br  0.27575305  0.66261542  0.98620107    -0.05900
Br686      Br  0.17088167  0.76620471  0.96675995    -0.02900
Br687      Br  0.19179457  0.63976859  0.02539551     0.00000
Br688      Br  0.27396457  0.77529832  0.99955389    -0.04400
C689        C  0.49506450  0.43368490  0.46025112    -0.11800
C690        C  0.48925459  0.39660452  0.46701180     0.03700
C691        C  0.48742656  0.40058239  0.47882194    -0.12300
C692        C  0.49081284  0.44106636  0.48420303     0.18500
C693        C  0.49613146  0.47848680  0.47754670    -0.09400
C694        C  0.49809560  0.47462698  0.46562058    -0.02300
H695        H  0.48280272  0.37189381  0.48386072     0.05100
C696        C  0.48779531  0.44277928  0.49674428     0.20500
H697        H  0.50243352  0.50338745  0.46057397     0.10200
C698        C  0.50682431  0.42322967  0.50368027    -0.15700
C699        C  0.50365871  0.42107219  0.51554792     0.03200
C700        C  0.48104358  0.43912981  0.52068121    -0.11000
C701        C  0.46170896  0.45738483  0.51359440    -0.01100
C702        C  0.46481657  0.45898084  0.50177040    -0.06200
H703        H  0.52425763  0.40954308  0.49981696     0.06200
H704        H  0.44404619  0.47095505  0.51728005     0.09600
Br705      Br  0.50140425  0.53495649  0.48441115    -0.05900
Br706      Br  0.48159148  0.33984660  0.46068419    -0.02900
Br707      Br  0.53155156  0.39498562  0.52412178     0.00000
Br708      Br  0.43673960  0.48224696  0.49280111    -0.04400
C709        C  0.41142789  0.38879362  0.56005938    -0.11800
C710        C  0.41067241  0.35808246  0.56903967     0.03700
C711        C  0.39040748  0.32749688  0.56962033    -0.12300
C712        C  0.37058963  0.32683951  0.56139777     0.18500
C713        C  0.37054284  0.35890132  0.55275538    -0.09400
C714        C  0.39093014  0.38946697  0.55212166    -0.02300
H715        H  0.39010529  0.30401812  0.57652993     0.05100
C716        C  0.34928363  0.29430492  0.56247681     0.20500
H717        H  0.39110556  0.41307439  0.54524386     0.10200
C718        C  0.33230706  0.29748696  0.57180682    -0.15700
C719        C  0.31078221  0.26965118  0.57276194     0.03200
C720        C  0.30564236  0.23829288  0.56415091    -0.11000
C721        C  0.32383226  0.23273307  0.55529687    -0.01100
C722        C  0.34569143  0.26022419  0.55447399    -0.06200
H723        H  0.33552175  0.32239895  0.57826486     0.06200
H724        H  0.32044192  0.20837443  0.54871916     0.09600
Br725      Br  0.34274244  0.36296446  0.54184027    -0.05900
Br726      Br  0.43608240  0.35770491  0.58108363    -0.02900
Br727      Br  0.28935476  0.27560046  0.58613514     0.00000
Br728      Br  0.37012648  0.25001814  0.54234746    -0.04400
C729        C  0.29286558  0.32383866  0.43970223    -0.11800
C730        C  0.30894806  0.30453353  0.44805734     0.03700
C731        C  0.33577310  0.31265646  0.44803127    -0.12300
C732        C  0.34678275  0.33992876  0.43976092     0.18500
C733        C  0.33040704  0.36250236  0.43211483    -0.09400
C734        C  0.30352742  0.35437552  0.43213624    -0.02300
H735        H  0.34822418  0.29587819  0.45407659     0.05100
C736        C  0.37537825  0.34131570  0.43849972     0.20500
H737        H  0.29133785  0.36921220  0.42566069     0.10200
C738        C  0.38696239  0.31949959  0.42920590    -0.15700
C739        C  0.41360957  0.32434692  0.42691171     0.03200
C740        C  0.42888186  0.35090485  0.43405547    -0.11000
C741        C  0.41763638  0.37018641  0.44378291    -0.01100
C742        C  0.39103518  0.36554552  0.44605738    -0.06200
H743        H  0.37497127  0.30042616  0.42342060     0.06200
H744        H  0.42924989  0.39149342  0.44918708     0.09600
Br745      Br  0.34418378  0.40257541  0.42107442    -0.05900
Br746      Br  0.29529583  0.26476182  0.45922697    -0.02900
Br747      Br  0.42777350  0.29839509  0.41333470     0.00000
Br748      Br  0.37651889  0.39639457  0.45886586    -0.04400
C749        C  0.21835499  0.24194735  0.46727260    -0.11800
C750        C  0.20551717  0.27230270  0.47464790     0.03700
C751        C  0.20773048  0.26811024  0.48647815    -0.12300
C752        C  0.22229037  0.23425639  0.49132109     0.18500
C753        C  0.23407516  0.20288322  0.48414478    -0.09400
C754        C  0.23219596  0.20700506  0.47226057    -0.02300
H755        H  0.19812836  0.29176102  0.49198408     0.05100
C756        C  0.22416857  0.23180136  0.50390546     0.20500
H757        H  0.24195651  0.18302186  0.46692282     0.10200
C758        C  0.20239241  0.21776566  0.51013136    -0.15700
C759        C  0.20355212  0.21398041  0.52199881     0.03200
C760        C  0.22670433  0.22460582  0.52786584    -0.11000
C761        C  0.24828188  0.23998319  0.52168199    -0.01100
C762        C  0.24703716  0.24415014  0.50978073    -0.06200
H763        H  0.18460634  0.20876924  0.50570531     0.06200
H764        H  0.26631022  0.24770238  0.52608150     0.09600
Br765      Br  0.25251397  0.15350983  0.49023673    -0.05900
Br766      Br  0.18441288  0.32070128  0.46959470    -0.02900
Br767      Br  0.17345735  0.19171312  0.52973449     0.00000
Br768      Br  0.27686520  0.26685912  0.50186862    -0.04400
C769        C  0.02487335  0.07567479  0.55378841    -0.11800
C770        C  0.03286969  0.10716850  0.56182851     0.03700
C771        C  0.05843641  0.12328042  0.56144413    -0.12300
C772        C  0.07606703  0.10834083  0.55309700     0.18500
C773        C  0.06735479  0.07938802  0.54455894    -0.09400
C774        C  0.04191639  0.06325586  0.54497629    -0.02300
H775        H  0.06503540  0.14554271  0.56805814     0.05100
C776        C  0.10394506  0.11976555  0.55409931     0.20500
H777        H  0.03588678  0.03879961  0.53878662     0.10200
C778        C  0.12210602  0.08663813  0.55663967    -0.15700
C779        C  0.14860390  0.09635862  0.55811769     0.03200
C780        C  0.15717230  0.14006518  0.55711788    -0.11000
C781        C  0.13878584  0.17306246  0.55466479    -0.01100
C782        C  0.11247668  0.16324947  0.55308305    -0.06200
H783        H  0.11551165  0.05313855  0.55766800     0.06200
H784        H  0.14494426  0.20687330  0.55382680     0.09600
Br785      Br  0.08984215  0.05924724  0.53252061    -0.05900
Br786      Br  0.01076520  0.12472552  0.57424329    -0.02900
Br787      Br  0.17149500  0.04933116  0.56235408     0.00000
Br788      Br  0.08912161  0.21018556  0.54926571    -0.04400
C789        C  0.05384406  0.03391464  0.42497397    -0.11800
C790        C  0.05354952  0.06930875  0.41718966     0.03700
C791        C  0.07358301  0.10054234  0.41737769    -0.12300
C792        C  0.09421494  0.09721926  0.42514202     0.18500
C793        C  0.09503437  0.06143288  0.43268126    -0.09400
C794        C  0.07502648  0.03010096  0.43252920    -0.02300
H795        H  0.07313724  0.12751197  0.41139441     0.05100
C796        C  0.11506493  0.13079152  0.42508337     0.20500
H797        H  0.07560918  0.00348240  0.43861235     0.10200
C798        C  0.11166740  0.17010229  0.43116652    -0.15700
C799        C  0.13187975  0.20109209  0.43191241     0.03200
C800        C  0.15605195  0.19272527  0.42648142    -0.11000
C801        C  0.15873532  0.15410710  0.41995200    -0.01100
C802        C  0.13857512  0.12342241  0.41922211    -0.06200
H803        H  0.09347041  0.17608682  0.43562864     0.06200
H804        H  0.17692474  0.14709774  0.41558265     0.09600
Br805      Br  0.12277999  0.05486137  0.44352846    -0.05900
Br806      Br  0.02707390  0.07606427  0.40573751    -0.02900
Br807      Br  0.12577137  0.25210767  0.44116681     0.00000
Br808      Br  0.14421339  0.07126310  0.41035789    -0.04400
C809        C  0.98569782  0.98443165  0.46351577    -0.11800
C810        C  0.96203507  0.99890457  0.46848250     0.03700
C811        C  0.95937688  0.99967774  0.48037481    -0.12300
C812        C  0.97988639  0.98622358  0.48748635     0.18500
C813        C  0.00371329  0.97315193  0.48256465    -0.09400
C814        C  0.00643726  0.97236907  0.47071259    -0.02300
H815        H  0.94090908  0.00954675  0.48410360     0.05100
C816        C  0.97577783  0.98466384  0.49997827     0.20500
H817        H  0.02475514  0.96120851  0.46708938     0.10200
C818        C  0.97572656  0.94400450  0.50557898    -0.15700
C819        C  0.97201548  0.94143384  0.51740503     0.03200
C820        C  0.96770290  0.98004490  0.52378192    -0.11000
C821        C  0.96746820  0.02058891  0.51809482    -0.01100
C822        C  0.97168450  0.02316867  0.50634991    -0.06200
H823        H  0.97863629  0.91413808  0.50071338     0.06200
H824        H  0.96475295  0.05072904  0.52286952     0.09600
Br825      Br  0.03308490  0.95590695  0.49166676    -0.05900
Br826      Br  0.93179574  0.01387609  0.45963945    -0.02900
Br827      Br  0.97199488  0.88441808  0.52424839     0.00000
Br828      Br  0.97314438  0.08019055  0.49950743    -0.04400
C829        C  0.79696889  0.78913416  0.43356392    -0.11800
C830        C  0.81601645  0.76890865  0.44049957     0.03700
C831        C  0.84094578  0.78704982  0.44138978    -0.12300
C832        C  0.84738863  0.82509443  0.43541304     0.18500
C833        C  0.82832650  0.84577691  0.42861786    -0.09400
C834        C  0.80316929  0.82800852  0.42784728    -0.02300
H835        H  0.85548290  0.77114039  0.44666070     0.05100
C836        C  0.87430307  0.84205464  0.43610961     0.20500
H837        H  0.78888343  0.84328741  0.42232876     0.10200
C838        C  0.89438708  0.82028436  0.43020743    -0.15700
C839        C  0.91956772  0.83813097  0.42972490     0.03200
C840        C  0.92474140  0.87827719  0.43523303    -0.11000
C841        C  0.90496429  0.89853361  0.44167774    -0.01100
C842        C  0.87995604  0.88055567  0.44223074    -0.06200
H843        H  0.89016378  0.79034357  0.42556731     0.06200
H844        H  0.90879244  0.92927310  0.44602055     0.09600
Br845      Br  0.83638131  0.89644985  0.41963418    -0.05900
Br846      Br  0.80906344  0.71648023  0.44901830    -0.02900
Br847      Br  0.94524572  0.80907957  0.42047148     0.00000
Br848      Br  0.85395566  0.91016392  0.45119957    -0.04400
C849        C  0.66386350  0.64470492  0.42338050    -0.11800
C850        C  0.66407379  0.61302769  0.41453262     0.03700
C851        C  0.64433345  0.58154779  0.41391961    -0.12300
C852        C  0.62418435  0.58106628  0.42196490     0.18500
C853        C  0.62327237  0.61358326  0.43050308    -0.09400
C854        C  0.64300287  0.64528023  0.43114048    -0.02300
H855        H  0.64477702  0.55713258  0.40718619     0.05100
C856        C  0.60408443  0.54662910  0.42126190     0.20500
H857        H  0.64260135  0.66924469  0.43797872     0.10200
C858        C  0.60613959  0.50947785  0.42820510    -0.15700
C859        C  0.58625981  0.47795910  0.42841143     0.03200
C860        C  0.56413285  0.48307377  0.42134305    -0.11000
C861        C  0.56274872  0.51973203  0.41411102    -0.01100
C862        C  0.58235083  0.55149025  0.41410385    -0.06200
H863        H  0.62278003  0.50596500  0.43383061     0.06200
H864        H  0.54582014  0.52462016  0.40872483     0.09600
Br865      Br  0.59562433  0.61516379  0.44153637    -0.05900
Br866      Br  0.69040763  0.61171701  0.40284003    -0.02900
Br867      Br  0.58915948  0.43204444  0.43949093     0.00000
Br868      Br  0.57782428  0.60256000  0.40480643    -0.04400
C869        C  0.67982519  0.58152545  0.54971402    -0.11800
C870        C  0.66279099  0.60260316  0.54205742     0.03700
C871        C  0.63637802  0.59163893  0.54188404    -0.12300
C872        C  0.62657355  0.55948952  0.54920891     0.18500
C873        C  0.64410015  0.53512129  0.55600022    -0.09400
C874        C  0.67058320  0.54662441  0.55630434    -0.02300
H875        H  0.62325596  0.60950787  0.53633960     0.05100
C876        C  0.59802378  0.55269754  0.54971141     0.20500
H877        H  0.68358297  0.53005189  0.56216422     0.10200
C878        C  0.58471268  0.53968168  0.53981249    -0.15700
C879        C  0.55793847  0.53097979  0.54013569     0.03200
C880        C  0.54431189  0.53429243  0.55050918    -0.11000
C881        C  0.55714081  0.55029166  0.56020239    -0.01100
C882        C  0.58369903  0.56067777  0.55979197    -0.06200
H883        H  0.59528943  0.53534285  0.53188286     0.06200
H884        H  0.54670470  0.55316442  0.56821227     0.09600
Br885      Br  0.63277476  0.48645805  0.56507579    -0.05900
Br886      Br  0.67458457  0.64788579  0.53197299    -0.02900
Br887      Br  0.54085806  0.51353960  0.52632726     0.00000
Br888      Br  0.59928010  0.58639409  0.57311170    -0.04400
C889        C  0.81304522  0.72261088  0.56248911    -0.11800
C890        C  0.83410345  0.72284861  0.55470504     0.03700
C891        C  0.85268085  0.75657951  0.55518185    -0.12300
C892        C  0.85087826  0.79017575  0.56337098     0.18500
C893        C  0.83056351  0.78887452  0.57144319    -0.09400
C894        C  0.81187259  0.75550661  0.57092075    -0.02300
H895        H  0.86823102  0.75732675  0.54891560     0.05100
C896        C  0.86982931  0.82697649  0.56312374     0.20500
H897        H  0.79594132  0.75584431  0.57700731     0.10200
C898        C  0.86123789  0.86932347  0.56032266    -0.15700
C899        C  0.87872281  0.90470300  0.55972473     0.03200
C900        C  0.90562724  0.89795681  0.56195864    -0.11000
C901        C  0.91390530  0.85526297  0.56486100    -0.01100
C902        C  0.89642066  0.82018880  0.56542213    -0.06200
H903        H  0.84076785  0.87476712  0.55846480     0.06200
H904        H  0.93425934  0.84871377  0.56668859     0.09600
Br905      Br  0.82757008  0.83190559  0.58335372    -0.05900
Br906      Br  0.83729894  0.68073864  0.54258172    -0.02900
Br907      Br  0.86423633  0.96041509  0.55552187     0.00000
Br908      Br  0.90977129  0.76369641  0.56962453    -0.04400
C909        C  0.74657058  0.68066440  0.52307084    -0.11800
C910        C  0.73100441  0.71440594  0.51833038     0.03700
C911        C  0.72774070  0.71686662  0.50645917    -0.12300
C912        C  0.74010740  0.68692673  0.49909940     0.21700
C913        C  0.75714799  0.65558825  0.50372271    -0.09400
C914        C  0.75997036  0.65233740  0.51552604    -0.02300
H915        H  0.71542918  0.74232484  0.50293155     0.05100
C916        C  0.73658882  0.69084989  0.48659319     0.20500
H917        H  0.77275106  0.62701390  0.51877874     0.10200
C918        C  0.74539391  0.72891122  0.48118885    -0.15700
C919        C  0.74350213  0.73347565  0.46937847     0.03200
C920        C  0.73328952  0.69898934  0.46267044    -0.11000
C921        C  0.72412865  0.66103205  0.46805098    -0.01100
C922        C  0.72514557  0.65719428  0.47996429    -0.06200
H923        H  0.75393654  0.75516340  0.48619273     0.06200
H924        H  0.71532905  0.63509232  0.46302665     0.09600
Br925      Br  0.77803569  0.61775208  0.49427009    -0.05900
Br926      Br  0.71391521  0.75864356  0.52732150    -0.02900
Br927      Br  0.75568957  0.78741072  0.46286221     0.00000
Br928      Br  0.70914094  0.60694331  0.48684777    -0.04400
C929        C  0.98809616  0.40990920  0.89581905    -0.11800
C930        C  0.97535984  0.42678611  0.88602800     0.03700
C931        C  0.97607372  0.40323658  0.87569815    -0.12300
C932        C  0.98970801  0.36346551  0.87478254     0.18500
C933        C  0.00346121  0.34779337  0.88427433    -0.09400
C934        C  0.00242498  0.37059263  0.89462084    -0.02300
H935        H  0.96590848  0.41599779  0.86832218     0.05100
C936        C  0.98960962  0.33856160  0.86389522     0.20500
H937        H  0.01282541  0.35690933  0.90181276     0.10200
C938        C  0.01136633  0.34093521  0.85667889    -0.15700
C939        C  0.01226414  0.31696657  0.84647946     0.03200
C940        C  0.99118561  0.28943769  0.84337737    -0.11000
C941        C  0.96960760  0.28646403  0.85074132    -0.01100
C942        C  0.96859865  0.31109706  0.86086829    -0.06200
H943        H  0.02775574  0.36154290  0.85901118     0.06200
H944        H  0.95309820  0.26610859  0.84842794     0.09600
Br945      Br  0.02360240  0.29476326  0.88355351    -0.05900
Br946      Br  0.95688730  0.48156228  0.88591042    -0.02900
Br947      Br  0.04325480  0.32213589  0.83733962     0.00000
Br948      Br  0.93809149  0.30672350  0.87028856    -0.04400
C949        C  0.96724371  0.02233082  0.59291061    -0.11800
C950        C  0.94558295  0.03719838  0.59933119     0.03700
C951        C  0.94932538  0.05496239  0.61024016    -0.12300
C952        C  0.97441304  0.05861746  0.61491772     0.18500
C953        C  0.99600276  0.04339958  0.60861074    -0.09400
C954        C  0.99231356  0.02527818  0.59773092    -0.02300
H955        H  0.93255100  0.06573355  0.61514474     0.05100
C956        C  0.97738389  0.07550945  0.62670278     0.20500
H957        H  0.00922115  0.01489361  0.59285940     0.10200
C958        C  0.98053918  0.04541071  0.63554466    -0.15700
C959        C  0.98180806  0.05926847  0.64689881     0.03200
C960        C  0.97979550  0.10450732  0.64965116    -0.11000
C961        C  0.97754784  0.13480161  0.64068897    -0.01100
C962        C  0.97619563  0.12057979  0.62929563    -0.06200
H963        H  0.98173722  0.01071321  0.63358989     0.06200
H964        H  0.97606993  0.16951771  0.64255170     0.09600
Br965      Br  0.03090841  0.04833276  0.61438722    -0.05900
Br966      Br  0.91034193  0.03245283  0.59387784    -0.02900
Br967      Br  0.98705480  0.01405451  0.65803721     0.00000
Br968      Br  0.97262096  0.16355580  0.61751812    -0.04400
C969        C  0.97536849  0.16937857  0.71798571    -0.11800
C970        C  0.99843470  0.18075834  0.72385463     0.03700
C971        C  0.99878377  0.18082288  0.73581598    -0.12300
C972        C  0.97642875  0.16952656  0.74209490     0.18500
C973        C  0.95336499  0.15843785  0.73622827    -0.09400
C974        C  0.95305537  0.15810101  0.72430403    -0.02300
H975        H  0.01656235  0.18979353  0.74024840     0.05100
C976        C  0.97679173  0.17343334  0.75469844     0.20500
H977        H  0.93533914  0.14838943  0.71992291     0.10200
C978        C  0.96243827  0.20739930  0.75973739    -0.15700
C979        C  0.96341876  0.21474499  0.77146731     0.03200
C980        C  0.97914153  0.18802492  0.77846149    -0.11000
C981        C  0.99274623  0.15276184  0.77353708    -0.01100
C982        C  0.99170048  0.14537721  0.76169945    -0.06200
H983        H  0.95076210  0.22892758  0.75446167     0.06200
H984        H  0.00497043  0.13211752  0.77880797     0.09600
Br985      Br  0.92203597  0.14214465  0.74413960    -0.05900
Br986      Br  0.03043766  0.19318373  0.71600848    -0.02900
Br987      Br  0.94280229  0.26205972  0.77749479     0.00000
Br988      Br  0.01089894  0.09694502  0.75544861    -0.04400
C989        C  0.71440957  0.36395051  0.84019402    -0.11800
C990        C  0.69282077  0.34879288  0.84654239     0.03700
C991        C  0.69638180  0.33340326  0.85764252    -0.12300
C992        C  0.72122922  0.33257326  0.86263834     0.18500
C993        C  0.74278016  0.34858235  0.85642087    -0.09400
C994        C  0.73918975  0.36454189  0.84532745    -0.02300
H995        H  0.67964390  0.32172240  0.86240259     0.05100
C996        C  0.72382321  0.31456895  0.87430871     0.20500
H997        H  0.75602550  0.37533080  0.84049345     0.10200
C998        C  0.71850891  0.26992430  0.87620332    -0.15700
C999        C  0.71781232  0.25277169  0.88729114     0.03200
C1000       C  0.72257420  0.28052154  0.89667785    -0.11000
C1001       C  0.72820707  0.32494946  0.89473825    -0.01100
C1002       C  0.72871138  0.34212123  0.88371587    -0.06200
H1003       H  0.71405878  0.24867998  0.86904162     0.06200
H1004       H  0.73161741  0.34677628  0.90189710     0.09600
Br1005     Br  0.77764205  0.34645126  0.86238226    -0.05900
Br1006     Br  0.65788345  0.34917720  0.84059452    -0.02900
Br1007     Br  0.70761747  0.19277020  0.88923157     0.00000
Br1008     Br  0.73396339  0.40408290  0.88208334    -0.04400
C1009       C  0.77698675  0.31645623  0.80194996    -0.11800
C1010       C  0.79330234  0.32454717  0.79252459     0.03700
C1011       C  0.81962653  0.31279810  0.79298256    -0.12300
C1012       C  0.82990261  0.29347081  0.80281202     0.18500
C1013       C  0.81336011  0.28368092  0.81204950    -0.09400
C1014       C  0.78696067  0.29498479  0.81153438    -0.02300
H1015       H  0.83229976  0.32014093  0.78583871     0.05100
C1016       C  0.85813907  0.28567435  0.80355581     0.20500
H1017       H  0.77467830  0.28995649  0.81894504     0.10200
C1018       C  0.87479240  0.32055081  0.80642136    -0.15700
C1019       C  0.90152352  0.31342217  0.80812039     0.03200
C1020       C  0.91176783  0.27085105  0.80679045    -0.11000
C1021       C  0.89499199  0.23639568  0.80359571    -0.01100
C1022       C  0.86839418  0.24347115  0.80202813    -0.06200
H1023       H  0.86678674  0.35307751  0.80771718     0.06200
H1024       H  0.90256308  0.20350267  0.80242433     0.09600
Br1025     Br  0.82650521  0.25854654  0.82588191    -0.05900
Br1026     Br  0.78068444  0.35389564  0.77916159    -0.02900
Br1027     Br  0.92240233  0.36179535  0.81325372     0.00000
Br1028     Br  0.84666911  0.19442038  0.79810917    -0.04400
C1029       C  0.74184671  0.48263586  0.64343231    -0.11800
C1030       C  0.71959969  0.48333320  0.63629942     0.03700
C1031       C  0.72036045  0.50597687  0.62590046    -0.12300
C1032       C  0.74305178  0.52782804  0.62237155     0.18500
C1033       C  0.76541178  0.52628777  0.62932343    -0.09400
C1034       C  0.76460028  0.50427127  0.63977550    -0.02300
H1035       H  0.70312012  0.50672695  0.62055529     0.05100
C1036       C  0.74343995  0.55064438  0.61122131     0.20500
H1037       H  0.78186127  0.50424255  0.64511347     0.10200
C1038       C  0.73469315  0.59415133  0.61036254    -0.15700
C1039       C  0.73535022  0.61656254  0.59989145     0.03200
C1040       C  0.74519065  0.59531249  0.59000749    -0.11000
C1041       C  0.75368417  0.55145135  0.59103679    -0.01100
C1042       C  0.75274804  0.52926235  0.60142527    -0.06200
H1043       H  0.72740856  0.61080251  0.61789593     0.06200
H1044       H  0.76093840  0.53372890  0.58366975     0.09600
Br1045     Br  0.79745808  0.55393229  0.62486849    -0.05900
Br1046     Br  0.68709826  0.45682330  0.64060767    -0.02900
Br1047     Br  0.72290602  0.67592257  0.59989100     0.00000
Br1048     Br  0.76413489  0.46933576  0.60182800    -0.04400
C1049       C  0.80401409  0.35993155  0.67451546    -0.11800
C1050       C  0.82337991  0.36055198  0.68308408     0.03700
C1051       C  0.84199722  0.32689262  0.68351598    -0.12300
C1052       C  0.84177869  0.29264351  0.67549798     0.18500
C1053       C  0.82297076  0.29261126  0.66679018    -0.09400
C1054       C  0.80430681  0.32592418  0.66637678    -0.02300
H1055       H  0.85671189  0.32735349  0.69014997     0.05100
C1056       C  0.86249564  0.25903837  0.67587383     0.20500
H1057       H  0.78956076  0.32473948  0.65976049     0.10200
C1058       C  0.86140433  0.22497418  0.68390323    -0.15700
C1059       C  0.88225885  0.19531908  0.68504421     0.03200
C1060       C  0.90458462  0.20005754  0.67810265    -0.11000
C1061       C  0.90476194  0.23281817  0.66969257    -0.01100
C1062       C  0.88414598  0.26224061  0.66859403    -0.06200
H1063       H  0.84467235  0.22232599  0.68951598     0.06200
H1064       H  0.92169011  0.23691783  0.66424651     0.09600
Br1065     Br  0.82177264  0.24730168  0.65540818    -0.05900
Br1066     Br  0.82443806  0.40436567  0.69486665    -0.02900
Br1067     Br  0.88019496  0.15193649  0.69680463     0.00000
Br1068     Br  0.88734938  0.30839587  0.65759163    -0.04400
C1069       C  0.72957717  0.40381425  0.71043794    -0.11800
C1070       C  0.70563851  0.38804959  0.71481384     0.03700
C1071       C  0.70151045  0.38693358  0.72662853    -0.12300
C1072       C  0.72091585  0.40098054  0.73423882     0.18500
C1073       C  0.74530201  0.41420258  0.72992965    -0.09400
C1074       C  0.74932787  0.41608872  0.71814759    -0.02300
H1075       H  0.68287183  0.37582234  0.72990176     0.05100
C1076       C  0.71577213  0.40008328  0.74665747     0.20500
H1077       H  0.76796816  0.42766649  0.71498551     0.10200
C1078       C  0.71402271  0.35950791  0.75210928    -0.15700
C1079       C  0.71096502  0.35690399  0.76393030     0.03200
C1080       C  0.70944264  0.39574053  0.77057551    -0.11000
C1081       C  0.71057569  0.43644099  0.76503003    -0.01100
C1082       C  0.71344823  0.43883688  0.75316423    -0.06200
H1083       H  0.71584042  0.32959818  0.74715507     0.06200
H1084       H  0.70919208  0.46651520  0.76993595     0.09600
Br1085     Br  0.77383763  0.42906154  0.73982564    -0.05900
Br1086     Br  0.67715666  0.37040945  0.70523356    -0.02900
Br1087     Br  0.71134499  0.29904704  0.77037119     0.00000
Br1088     Br  0.71371338  0.49562639  0.74618786    -0.04400
C1089       C  0.47266957  0.60829925  0.64336387    -0.11800
C1090       C  0.45047074  0.59315912  0.63741294     0.03700
C1091       C  0.45327661  0.57366497  0.62667140    -0.12300
C1092       C  0.47794571  0.56925618  0.62161771     0.18500
C1093       C  0.49996080  0.58670855  0.62722277    -0.09400
C1094       C  0.49722371  0.60590502  0.63804434    -0.02300
H1095       H  0.43611847  0.56177089  0.62223261     0.05100
C1096       C  0.47995043  0.54781554  0.61030378     0.20500
H1097       H  0.51447162  0.61724583  0.64251114     0.10200
C1098       C  0.48392693  0.57392358  0.60068750    -0.15700
C1099       C  0.48382966  0.55558797  0.58975940     0.03200
C1100       C  0.47953026  0.51009710  0.58826877    -0.11000
C1101       C  0.47657350  0.48359807  0.59794333    -0.01100
C1102       C  0.47656282  0.50221731  0.60891399    -0.06200
H1103       H  0.48677270  0.60892544  0.60168880     0.06200
H1104       H  0.47348261  0.44866099  0.59695792     0.09600
Br1105     Br  0.53420173  0.58320455  0.62063769    -0.05900
Br1106     Br  0.41575520  0.59976344  0.64338102    -0.02900
Br1107     Br  0.49067037  0.59446090  0.57724683     0.00000
Br1108     Br  0.47176621  0.46442451  0.62177627    -0.04400
C1109       C  0.66848578  0.49898224  0.68141348    -0.11800
C1110       C  0.66014116  0.53836027  0.67641198     0.03700
C1111       C  0.63390320  0.55081925  0.67740204    -0.12300
C1112       C  0.61602140  0.52429741  0.68330481     0.18500
C1113       C  0.62463229  0.48592354  0.68864042    -0.09400
C1114       C  0.65067662  0.47359875  0.68765780    -0.02300
H1115       H  0.62723587  0.58053441  0.67329134     0.05100
C1116       C  0.58833788  0.53667225  0.68363135     0.20500
H1117       H  0.65691382  0.44316108  0.69149237     0.10200
C1118       C  0.57056857  0.51561148  0.67632040    -0.15700
C1119       C  0.54458547  0.52971682  0.67569973     0.03200
C1120       C  0.53633683  0.56502313  0.68255418    -0.11000
C1121       C  0.55385055  0.58414880  0.69032423    -0.01100
C1122       C  0.57972449  0.57036791  0.69086934    -0.06200
H1123       H  0.57722806  0.48946696  0.67075495     0.06200
H1124       H  0.54766353  0.61150962  0.69560011     0.09600
Br1125     Br  0.60142495  0.44895687  0.69712981    -0.05900
Br1126     Br  0.68304109  0.57357924  0.66731481    -0.02900
Br1127     Br  0.52213030  0.50339873  0.66452910     0.00000
Br1128     Br  0.60292068  0.59969923  0.70123175    -0.04400
C1129       C  0.49114194  0.76985795  0.83841290    -0.11800
C1130       C  0.48519832  0.74715271  0.84858507     0.03700
C1131       C  0.48574669  0.76948103  0.85905860    -0.12300
C1132       C  0.49205727  0.81417307  0.85961095     0.18500
C1133       C  0.49808898  0.83675870  0.84955740    -0.09400
C1134       C  0.49750226  0.81473859  0.83911462    -0.02300
H1135       H  0.48155943  0.75178687  0.86684178     0.05100
C1136       C  0.49394187  0.83613246  0.87080469     0.20500
H1137       H  0.50209454  0.83306901  0.83147963     0.10200
C1138       C  0.51657114  0.83016983  0.87728481    -0.15700
C1139       C  0.51924783  0.85011981  0.88795520     0.03200
C1140       C  0.49870373  0.87608513  0.89241846    -0.11000
C1141       C  0.47644532  0.88336982  0.88568574    -0.01100
C1142       C  0.47395462  0.86358776  0.87494868    -0.06200
H1143       H  0.53231940  0.81005398  0.87397435     0.06200
H1144       H  0.46052953  0.90322039  0.88893691     0.09600
Br1145     Br  0.50806917  0.89740100  0.84974962    -0.05900
Br1146     Br  0.47770622  0.68554244  0.84896440    -0.02900
Br1147     Br  0.55198929  0.84215317  0.89568661     0.00000
Br1148     Br  0.44271832  0.87390020  0.86635515    -0.04400
C1149       C  0.55229024  0.63660858  0.81090594    -0.11800
C1150       C  0.55451038  0.60959135  0.82057797     0.03700
C1151       C  0.57235410  0.57496518  0.82057832    -0.12300
C1152       C  0.58825937  0.56697582  0.81106689     0.18500
C1153       C  0.58679134  0.59505529  0.80157689    -0.09400
C1154       C  0.56890896  0.62967987  0.80157005    -0.02300
H1155       H  0.57376114  0.55403211  0.82799670     0.05100
C1156       C  0.60677975  0.52997057  0.81129526     0.20500
H1157       H  0.56720691  0.65005888  0.79405809     0.10200
C1158       C  0.60316764  0.49421714  0.80387971    -0.15700
C1159       C  0.62190409  0.46084504  0.80311104     0.03200
C1160       C  0.64452506  0.46308070  0.80993353    -0.11000
C1161       C  0.64725643  0.49770604  0.81777494    -0.01100
C1162       C  0.62869470  0.53099402  0.81848565    -0.06200
H1163       H  0.58621286  0.49320777  0.79836335     0.06200
H1164       H  0.66450675  0.49980054  0.82309853     0.09600
Br1165     Br  0.60876363  0.58740313  0.78845415    -0.05900
Br1166     Br  0.53410985  0.61937884  0.83408494    -0.02900
Br1167     Br  0.61686119  0.41597030  0.79182009     0.00000
Br1168     Br  0.63530649  0.57892358  0.82873867    -0.04400
C1169       C  0.48712496  0.67514326  0.77256105    -0.11800
C1170       C  0.50801362  0.68372134  0.76499331     0.03700
C1171       C  0.50458933  0.67790881  0.75326845    -0.12300
C1172       C  0.48071574  0.66323190  0.74888514     0.18500
C1173       C  0.46045716  0.65188711  0.75642979    -0.09400
C1174       C  0.46379571  0.65771312  0.76818720    -0.02300
H1175       H  0.52052901  0.68537703  0.74751244     0.05100
C1176       C  0.47740365  0.66013678  0.73640546     0.20500
H1177       H  0.44765612  0.65060436  0.77385824     0.10200
C1178       C  0.47801496  0.61889425  0.73116790    -0.15700
C1179       C  0.47564313  0.61478177  0.71934464     0.03200
C1180       C  0.47273336  0.65265544  0.71251570    -0.11000
C1181       C  0.47233420  0.69400576  0.71779705    -0.01100
C1182       C  0.47442165  0.69791255  0.72966227    -0.06200
H1183       H  0.48064339  0.58978328  0.73631043     0.06200
H1184       H  0.47001174  0.72329788  0.71270126     0.09600
Br1185     Br  0.42742241  0.63096865  0.75097895    -0.05900
Br1186     Br  0.54192956  0.70222378  0.77011959    -0.02900
Br1187     Br  0.47831530  0.55662286  0.71308533     0.00000
Br1188     Br  0.47231530  0.75526247  0.73636193    -0.04400
C1189       C  0.24559775  0.01546047  0.64629633    -0.11800
C1190       C  0.22124422  0.01527583  0.64061580     0.03700
C1191       C  0.21843393  0.03745461  0.63022562    -0.12300
C1192       C  0.23940697  0.06052342  0.62541253     0.18500
C1193       C  0.26366838  0.06055923  0.63102403    -0.09400
C1194       C  0.26660820  0.03808813  0.64130903    -0.02300
H1195       H  0.19962983  0.03756597  0.62599706     0.05100
C1196       C  0.23590756  0.08394545  0.61446812     0.20500
H1197       H  0.28536478  0.03913825  0.64557158     0.10200
C1198       C  0.23571885  0.12998771  0.61427715    -0.15700
C1199       C  0.23448192  0.15298400  0.60393536     0.03200
C1200       C  0.23362851  0.12964752  0.59349407    -0.11000
C1201       C  0.23300065  0.08346086  0.59383809    -0.01100
C1202       C  0.23402768  0.06072910  0.60414452    -0.06200
H1203       H  0.23706177  0.14809901  0.62221963     0.06200
H1204       H  0.23189054  0.06462035  0.58600526     0.09600
Br1205     Br  0.29336542  0.09107343  0.62499482    -0.05900
Br1206     Br  0.19047319  0.98936858  0.64707626    -0.02900
Br1207     Br  0.23545459  0.21578025  0.60475949     0.00000
Br1208     Br  0.23397532  0.99782290  0.60365414    -0.04400
C1209       C  0.05149579  0.10032175  0.68867057    -0.11800
C1210       C  0.06136719  0.05830231  0.68613251     0.03700
C1211       C  0.08825464  0.05053136  0.68692662    -0.12300
C1212       C  0.10556024  0.08394084  0.69027512     0.18500
C1213       C  0.09566757  0.12542345  0.69313136    -0.09400
C1214       C  0.06892588  0.13321938  0.69234273    -0.02300
H1215       H  0.09584008  0.01855888  0.68459680     0.05100
C1216       C  0.13389016  0.07516204  0.69013808     0.20500
H1217       H  0.06179496  0.16574932  0.69438445     0.10200
C1218       C  0.14977993  0.09616029  0.68203492    -0.15700
C1219       C  0.17577375  0.08316319  0.68043557     0.03200
C1220       C  0.18589730  0.04857901  0.68696258    -0.11000
C1221       C  0.17051922  0.02974452  0.69555340    -0.01100
C1222       C  0.14473981  0.04287822  0.69721710    -0.06200
H1223       H  0.14153665  0.12104471  0.67653805     0.06200
H1224       H  0.17825771  0.00312949  0.70063949     0.09600
Br1225     Br  0.11782418  0.17253630  0.69807771    -0.05900
Br1226     Br  0.03978227  0.01154410  0.68061236    -0.02900
Br1227     Br  0.19565573  0.10992111  0.66847751     0.00000
Br1228     Br  0.12483642  0.01460042  0.70895612    -0.04400
C1229       C  0.40730008  0.72097597  0.67455068    -0.11800
C1230       C  0.38291073  0.71548420  0.68003642     0.03700
C1231       C  0.36441289  0.74950248  0.67976209    -0.12300
C1232       C  0.36993071  0.78922809  0.67425275     0.18500
C1233       C  0.39403859  0.79462694  0.66877347    -0.09400
C1234       C  0.41224100  0.76064792  0.66882326    -0.02300
H1235       H  0.34590121  0.74541860  0.68410841     0.05100
C1236       C  0.35076334  0.82541587  0.67454317     0.20500
H1237       H  0.43077234  0.76594858  0.66458585     0.10200
C1238       C  0.35075326  0.85465875  0.68380006    -0.15700
C1239       C  0.33285476  0.88937986  0.68431716     0.03200
C1240       C  0.31437500  0.89477817  0.67552509    -0.11000
C1241       C  0.31479998  0.86588867  0.66616596    -0.01100
C1242       C  0.33304209  0.83179561  0.66554994    -0.06200
H1243       H  0.36456802  0.85017520  0.69069136     0.06200
H1244       H  0.30063294  0.86953607  0.65937604     0.09600
Br1245     Br  0.40346008  0.84879015  0.66159934    -0.05900
Br1246     Br  0.37441638  0.66448212  0.68883097    -0.02900
Br1247     Br  0.33314763  0.92621189  0.69761180     0.00000
Br1248     Br  0.33300396  0.79443879  0.65235309    -0.04400
C1249       C  0.22830293  0.90507717  0.84297561    -0.11800
C1250       C  0.20546137  0.88787912  0.84803670     0.03700
C1251       C  0.20685955  0.86688908  0.85860407    -0.12300
C1252       C  0.23072523  0.86264859  0.86431724     0.18500
C1253       C  0.25343270  0.88069204  0.85945172    -0.09400
C1254       C  0.25209077  0.90187099  0.84887292    -0.02300
H1255       H  0.18920216  0.85400066  0.86242674     0.05100
C1256       C  0.23110755  0.84125906  0.87561615     0.20500
H1257       H  0.26984150  0.91438745  0.84505394     0.10200
C1258       C  0.23173831  0.79534523  0.87640466    -0.15700
C1259       C  0.23048752  0.77437642  0.88704660     0.03200
C1260       C  0.22821487  0.79970248  0.89712983    -0.11000
C1261       C  0.22797147  0.84575150  0.89619036    -0.01100
C1262       C  0.22937622  0.86642762  0.88561990    -0.06200
H1263       H  0.23287642  0.77576651  0.86869418     0.06200
H1264       H  0.22657334  0.86611875  0.90375295     0.09600
Br1265     Br  0.28668918  0.87601969  0.86685100    -0.05900
Br1266     Br  0.17162778  0.89360691  0.84113345    -0.02900
Br1267     Br  0.23062486  0.71151175  0.88707728     0.00000
Br1268     Br  0.22810043  0.92928265  0.88523065    -0.04400
C1269       C  0.42442425  0.79103704  0.80013866    -0.11800
C1270       C  0.40588501  0.77690212  0.79207369     0.03700
C1271       C  0.38066777  0.79421931  0.79229274    -0.12300
C1272       C  0.37373831  0.82558042  0.80048615     0.18500
C1273       C  0.39260603  0.84119368  0.80823716    -0.09400
C1274       C  0.41786263  0.82389362  0.80799712    -0.02300
H1275       H  0.36631870  0.78273722  0.78618989     0.05100
C1276       C  0.34674081  0.84174908  0.80084788     0.20500
H1277       H  0.43191540  0.83424086  0.81436579     0.10200
C1278       C  0.32728853  0.81658992  0.80616631    -0.15700
C1279       C  0.30194671  0.83321214  0.80753413     0.03200
C1280       C  0.29603766  0.87538957  0.80344782    -0.11000
C1281       C  0.31539328  0.89945618  0.79772411    -0.01100
C1282       C  0.34053117  0.88298988  0.79638330    -0.06200
H1283       H  0.33212378  0.78475099  0.80964324     0.06200
H1284       H  0.31116016  0.93198637  0.79457625     0.09600
Br1285     Br  0.38427559  0.88405152  0.81969961    -0.05900
Br1286     Br  0.41415369  0.73354482  0.78074600    -0.02900
Br1287     Br  0.27719194  0.79932123  0.81603865     0.00000
Br1288     Br  0.36603408  0.91860097  0.78878371    -0.04400
C1289       C  0.16553214  0.02609874  0.81398689    -0.11800
C1290       C  0.16705172  0.06347206  0.82116773     0.03700
C1291       C  0.14717089  0.09481389  0.82099568    -0.12300
C1292       C  0.12529387  0.08925818  0.81401780     0.18500
C1293       C  0.12298330  0.05106500  0.80732515    -0.09400
C1294       C  0.14308800  0.01994481  0.80729426    -0.02300
H1295       H  0.14855179  0.12339246  0.82647886     0.05100
C1296       C  0.10419132  0.12211808  0.81446721     0.20500
H1297       H  0.14140733  0.99139275  0.80182511     0.10200
C1298       C  0.10098624  0.15192979  0.80548401    -0.15700
C1299       C  0.07959608  0.18067010  0.80528490     0.03200
C1300       C  0.06111307  0.17956059  0.81421335    -0.11000
C1301       C  0.06534912  0.15128046  0.82347132    -0.01100
C1302       C  0.08659587  0.12272653  0.82364481    -0.06200
H1303       H  0.11463283  0.15168257  0.79842040     0.06200
H1304       H  0.05134378  0.14992745  0.83039388     0.09600
Br1305     Br  0.09242340  0.03971523  0.79834112    -0.05900
Br1306     Br  0.19479279  0.07270479  0.83195014    -0.02900
Br1307     Br  0.07527716  0.21705688  0.79210696     0.00000
Br1308     Br  0.08966750  0.08267431  0.83616027    -0.04400
C1309       C  0.24831177  0.96093481  0.71459307    -0.11800
C1310       C  0.24276805  0.92257372  0.72084066     0.03700
C1311       C  0.23910784  0.92523673  0.73270653    -0.12300
C1312       C  0.24051493  0.96572881  0.73845811     0.18500
C1313       C  0.24562787  0.00390041  0.73220183    -0.09400
C1314       C  0.24961537  0.00124485  0.72046639    -0.02300
H1315       H  0.23531618  0.89559530  0.73748621     0.05100
C1316       C  0.23736424  0.96783639  0.75100647     0.20500
H1317       H  0.25314087  0.03139745  0.71586475     0.10200
C1318       C  0.25886634  0.97946034  0.75778873    -0.15700
C1319       C  0.25679838  0.98159221  0.76968692     0.03200
C1320       C  0.23283099  0.97150138  0.77502873    -0.11000
C1321       C  0.21118373  0.96089023  0.76816564    -0.01100
C1322       C  0.21323942  0.95924511  0.75627594    -0.06200
H1323       H  0.27750435  0.98626980  0.75378924     0.06200
H1324       H  0.19261332  0.95303951  0.77209342     0.09600
Br1325     Br  0.24616718  0.06087613  0.73921657    -0.05900
Br1326     Br  0.24104087  0.86577961  0.71380779    -0.02900
Br1327     Br  0.28794107  0.99496144  0.77807666     0.00000
Br1328     Br  0.18252481  0.94568088  0.74759407    -0.04400
C1329       C  0.23059188  0.29915513  0.39844713    -0.11800
C1330       C  0.23010213  0.27043886  0.38896549     0.03700
C1331       C  0.23017646  0.28755658  0.37782630    -0.12300
C1332       C  0.23061763  0.33305964  0.37591224     0.18500
C1333       C  0.23116190  0.36156545  0.38535338    -0.09400
C1334       C  0.23141564  0.34462344  0.39641574    -0.02300
H1335       H  0.22915249  0.26530619  0.37062041     0.05100
C1336       C  0.22822882  0.35047709  0.36412033     0.20500
H1337       H  0.23156767  0.36742654  0.40352069     0.10200
C1338       C  0.20389979  0.34866596  0.35867325    -0.15700
C1339       C  0.20041228  0.36586600  0.34770943     0.03200
C1340       C  0.22170236  0.38493743  0.34183407    -0.11000
C1341       C  0.24596722  0.38755751  0.34743054    -0.01100
C1342       C  0.24933204  0.37056468  0.35845163    -0.06200
H1343       H  0.18737957  0.33430537  0.36306318     0.06200
H1344       H  0.26262472  0.40168415  0.34309337     0.09600
Br1345     Br  0.22952063  0.42404020  0.38359730    -0.05900
Br1346     Br  0.22671837  0.20817870  0.39065149    -0.02900
Br1347     Br  0.16567444  0.36438347  0.34155355     0.00000
Br1348     Br  0.28325281  0.37437924  0.36531563    -0.04400
C1349       C  0.24862336  0.61315807  0.09055284    -0.11800
C1350       C  0.27019849  0.58790217  0.09412058     0.03700
C1351       C  0.26934652  0.56540489  0.10449893    -0.12300
C1352       C  0.24729269  0.56760221  0.11159795     0.18500
C1353       C  0.22614558  0.59448101  0.10829264    -0.09400
C1354       C  0.22688215  0.61671720  0.09781656    -0.02300
H1355       H  0.28611851  0.54620200  0.10708840     0.05100
C1356       C  0.24798167  0.54459484  0.12279191     0.20500
H1357       H  0.21021709  0.63620887  0.09524777     0.10200
C1358       C  0.26740054  0.55624383  0.13063830    -0.15700
C1359       C  0.26917078  0.53600547  0.14129676     0.03200
C1360       C  0.25058120  0.50384695  0.14454884    -0.11000
C1361       C  0.23182255  0.49078533  0.13643875    -0.01100
C1362       C  0.23070864  0.51025115  0.12560193    -0.06200
H1363       H  0.28145224  0.58136664  0.12842142     0.06200
H1364       H  0.21778448  0.46552382  0.13853336     0.09600
Br1365     Br  0.19641163  0.60356262  0.11799345    -0.05900
Br1366     Br  0.30196491  0.58500610  0.08544166    -0.02900
Br1367     Br  0.29845769  0.55313015  0.15055716     0.00000
Br1368     Br  0.20623934  0.48716607  0.11475367    -0.04400
C1369       C  0.22050870  0.43201814  0.27234800    -0.11800
C1370       C  0.23286928  0.46689458  0.26650218     0.03700
C1371       C  0.23496488  0.46571209  0.25456072    -0.12300
C1372       C  0.22499806  0.43041279  0.24820343     0.18500
C1373       C  0.21268031  0.39579457  0.25396175    -0.09400
C1374       C  0.21030206  0.39702770  0.26583636    -0.02300
H1375       H  0.24458671  0.49244897  0.25019027     0.05100
C1376       C  0.22877409  0.42926889  0.23565103     0.20500
H1377       H  0.20111323  0.36942630  0.27000592     0.10200
C1378       C  0.25412086  0.42442165  0.23125598    -0.15700
C1379       C  0.25862218  0.42432773  0.21947149     0.03200
C1380       C  0.23749931  0.42852331  0.21184692    -0.11000
C1381       C  0.21209028  0.43226654  0.21622991    -0.01100
C1382       C  0.20763875  0.43335011  0.22801713    -0.06200
H1383       H  0.27050460  0.42111724  0.23703145     0.06200
H1384       H  0.19578949  0.43693022  0.21047162     0.09600
Br1385     Br  0.20035647  0.34459027  0.24606504    -0.05900
Br1386     Br  0.24709463  0.51738860  0.27408609    -0.02900
Br1387     Br  0.29390869  0.41798015  0.21417973     0.00000
Br1388     Br  0.17268469  0.44407896  0.23324095    -0.04400
C1389       C  0.49283901  0.37015786  0.39197152    -0.11800
C1390       C  0.51428102  0.35113858  0.38618365     0.03700
C1391       C  0.51061851  0.33026196  0.37563260    -0.12300
C1392       C  0.48580056  0.32772203  0.37062733     0.18500
C1393       C  0.46450844  0.34785831  0.37619501    -0.09400
C1394       C  0.46815389  0.36903961  0.38673915    -0.02300
H1395       H  0.52721928  0.31556878  0.37134076     0.05100
C1396       C  0.48274495  0.30355720  0.35966073     0.20500
H1397       H  0.45141223  0.38295624  0.39109838     0.10200
C1398       C  0.48163572  0.25752486  0.35965107    -0.15700
C1399       C  0.48077476  0.23348655  0.34938758     0.03200
C1400       C  0.48156087  0.25561631  0.33881247    -0.11000
C1401       C  0.48203846  0.30188386  0.33894808    -0.01100
C1402       C  0.48253572  0.32569393  0.34917727    -0.06200
H1403       H  0.48180610  0.24016015  0.36769168     0.06200
H1404       H  0.48215197  0.31992685  0.33100969     0.09600
Br1405     Br  0.42995593  0.34540734  0.36994950    -0.05900
Br1406     Br  0.54916357  0.35369149  0.39214649    -0.02900
Br1407     Br  0.47990195  0.17080010  0.35049265     0.00000
Br1408     Br  0.48365600  0.38848882  0.34840283    -0.04400
C1409       C  0.27885502  0.32971515  0.30362230    -0.11800
C1410       C  0.28920074  0.31897399  0.29286257     0.03700
C1411       C  0.31443492  0.30171014  0.29210212    -0.12300
C1412       C  0.32945613  0.29597845  0.30197618     0.18500
C1413       C  0.31873410  0.30549468  0.31273486    -0.09400
C1414       C  0.29349045  0.32208774  0.31348821    -0.02300
H1415       H  0.32273004  0.29438577  0.28380980     0.05100
C1416       C  0.35651864  0.28088154  0.30102676     0.20500
H1417       H  0.28583004  0.33162750  0.32175556     0.10200
C1418       C  0.37685891  0.31143036  0.30190339    -0.15700
C1419       C  0.40285523  0.29758411  0.30250908     0.03200
C1420       C  0.40863761  0.25234549  0.30201115    -0.11000
C1421       C  0.38801793  0.22212813  0.30074096    -0.01100
C1422       C  0.36214782  0.23605014  0.30037674    -0.06200
H1423       H  0.37236492  0.34604839  0.30262525     0.06200
H1424       H  0.39192186  0.18724442  0.30034969     0.09600
Br1425     Br  0.33839183  0.29878191  0.32654832    -0.05900
Br1426     Br  0.27060250  0.33156605  0.27905372    -0.02900
Br1427     Br  0.42886813  0.34174652  0.30517075     0.00000
Br1428     Br  0.33496776  0.19275539  0.29983760    -0.04400
C1429       C  0.46646535  0.07526354  0.14454451    -0.11800
C1430       C  0.47198792  0.10067335  0.13478709     0.03700
C1431       C  0.47398147  0.08024333  0.12407339    -0.12300
C1432       C  0.47065419  0.03475828  0.12288808     0.18500
C1433       C  0.46541432  0.00941216  0.13257204    -0.09400
C1434       C  0.46332728  0.02961022  0.14322642    -0.02300
H1435       H  0.47780223  0.09997673  0.11659424     0.05100
C1436       C  0.47165483  0.01441220  0.11144164     0.20500
H1437       H  0.45934347  0.00918401  0.15056045     0.10200
C1438       C  0.49420726  0.99199305  0.10792986    -0.15700
C1439       C  0.49601611  0.97391981  0.09694393     0.03200
C1440       C  0.47478137  0.97785726  0.08931274    -0.11000
C1441       C  0.45195559  0.99923840  0.09305499    -0.01100
C1442       C  0.45029208  0.01741199  0.10398138    -0.06200
H1443       H  0.51072754  0.98961696  0.11366178     0.06200
H1444       H  0.43546949  0.00277550  0.08734463     0.09600
Br1445     Br  0.46022659  0.94720834  0.13159739    -0.05900
Br1446     Br  0.47549916  0.16324713  0.13534481    -0.02900
Br1447     Br  0.52883871  0.94836342  0.09260349     0.00000
Br1448     Br  0.41857527  0.04656512  0.10833335    -0.04400
C1449       C  0.39886123  0.19700005  0.17355864    -0.11800
C1450       C  0.37811251  0.19849290  0.18146718     0.03700
C1451       C  0.36009013  0.23300942  0.18103942    -0.12300
C1452       C  0.36235787  0.26605211  0.17280657     0.18500
C1453       C  0.38230991  0.26356434  0.16461981    -0.09400
C1454       C  0.40039467  0.22936298  0.16506789    -0.02300
H1455       H  0.34455553  0.23465652  0.18730457     0.05100
C1456       C  0.34356483  0.30267657  0.17283381     0.20500
H1457       H  0.41616722  0.22864154  0.15890264     0.10200
C1458       C  0.35058274  0.34314713  0.17765176    -0.15700
C1459       C  0.33259940  0.37781999  0.17827294     0.03200
C1460       C  0.30699999  0.37204885  0.17394099    -0.11000
C1461       C  0.30063274  0.33157999  0.16877954    -0.01100
C1462       C  0.31852285  0.29719571  0.16826859    -0.06200
H1463       H  0.37000360  0.34744481  0.18114205     0.06200
H1464       H  0.28137188  0.32606904  0.16524852     0.09600
Br1465     Br  0.38564377  0.30634140  0.15275627    -0.05900
Br1466     Br  0.37469095  0.15690605  0.19360989    -0.02900
Br1467     Br  0.34423764  0.43072995  0.18558372     0.00000
Br1468     Br  0.30786475  0.24300875  0.16133108    -0.04400
C1469       C  0.47876700  0.15731484  0.27293861    -0.11800
C1470       C  0.45749749  0.13456316  0.26804167     0.03700
C1471       C  0.45580626  0.13020680  0.25613271    -0.12300
C1472       C  0.47498355  0.14818958  0.24895906     0.18500
C1473       C  0.49667273  0.16920464  0.25385006    -0.09400
C1474       C  0.49842135  0.17352797  0.26568278    -0.02300
H1475       H  0.43907453  0.11377949  0.25242433     0.05100
C1476       C  0.47196614  0.14540149  0.23640473     0.20500
H1477       H  0.51505006  0.19077592  0.26922556     0.10200
C1478       C  0.46662102  0.18353004  0.23009847    -0.15700
C1479       C  0.46397017  0.18187474  0.21818448     0.03200
C1480       C  0.46650748  0.14146695  0.21244071    -0.11000
C1481       C  0.47177628  0.10348305  0.21880421    -0.01100
C1482       C  0.47464395  0.10520066  0.23063711    -0.06200
H1483       H  0.46438587  0.21463039  0.23448215     0.06200
H1484       H  0.47408385  0.07219417  0.21451101     0.09600
Br1485     Br  0.52439139  0.19273270  0.24470585    -0.05900
Br1486     Br  0.42911651  0.11216240  0.27697205    -0.02900
Br1487     Br  0.45533243  0.23485864  0.21028554     0.00000
Br1488     Br  0.48325007  0.05206082  0.23849555    -0.04400
C1489       C  0.98967506  0.90428699  0.39653431    -0.11800
C1490       C  0.01238180  0.88974626  0.39084891     0.03700
C1491       C  0.01029747  0.86563255  0.38071400    -0.12300
C1492       C  0.98581071  0.85553667  0.37605955     0.18500
C1493       C  0.96309684  0.87083337  0.38156206    -0.09400
C1494       C  0.96514248  0.89507236  0.39172009    -0.02300
H1495       H  0.02789431  0.85501163  0.37637038     0.05100
C1496       C  0.98475664  0.83193419  0.36500575     0.20500
H1497       H  0.94750503  0.90551184  0.39606035     0.10200
C1498       C  0.98374515  0.78592238  0.36467303    -0.15700
C1499       C  0.98539617  0.76299698  0.35425427     0.03200
C1500       C  0.98851761  0.78642014  0.34393799    -0.11000
C1501       C  0.98866388  0.83261097  0.34441801    -0.01100
C1502       C  0.98678523  0.85518921  0.35475437    -0.06200
H1503       H  0.98221053  0.76778286  0.37256812     0.06200
H1504       H  0.99040932  0.85163833  0.33667537     0.09600
Br1505     Br  0.92903578  0.85912798  0.37550006    -0.05900
Br1506     Br  0.04673250  0.90369403  0.39629848    -0.02900
Br1507     Br  0.98457347  0.70016434  0.35486389     0.00000
Br1508     Br  0.98761431  0.91807263  0.35450104    -0.04400
C1509       C  0.16162501  0.50875327  0.31151135    -0.11800
C1510       C  0.13781185  0.50827102  0.30544515     0.03700
C1511       C  0.12046054  0.54350549  0.30656756    -0.12300
C1512       C  0.12650616  0.57934423  0.31360764     0.18500
C1513       C  0.15007751  0.57982626  0.31967564    -0.09400
C1514       C  0.16742474  0.54481845  0.31858080    -0.02300
H1515       H  0.10224058  0.54315355  0.30187454     0.05100
C1516       C  0.10753561  0.61525395  0.31484564     0.20500
H1517       H  0.18563817  0.54591807  0.32326998     0.10200
C1518       C  0.09104207  0.61556400  0.32435878    -0.15700
C1519       C  0.07099130  0.64635464  0.32527366     0.03200
C1520       C  0.06731914  0.67755210  0.31656534    -0.11000
C1521       C  0.08530273  0.67953936  0.30755022    -0.01100
C1522       C  0.10514047  0.64819308  0.30655214    -0.06200
H1523       H  0.09323369  0.59081973  0.33089471     0.06200
H1524       H  0.08280067  0.70347293  0.30085132     0.09600
Br1525     Br  0.15950776  0.62811482  0.32935304    -0.05900
Br1526     Br  0.12862122  0.46237990  0.29494049    -0.02900
Br1527     Br  0.04881630  0.64375629  0.33846802     0.00000
Br1528     Br  0.12760835  0.64996377  0.29346940    -0.04400
C1529       C  0.96335227  0.56515715  0.09159226    -0.11800
C1530       C  0.94522874  0.59522087  0.09635567     0.03700
C1531       C  0.94941991  0.61283670  0.10721502    -0.12300
C1532       C  0.97109806  0.60076741  0.11376607     0.18500
C1533       C  0.98853417  0.56910869  0.10935280    -0.09400
C1534       C  0.98470389  0.55190809  0.09832965    -0.02300
H1535       H  0.93536220  0.63592048  0.11066663     0.05100
C1536       C  0.97320259  0.61877498  0.12554969     0.20500
H1537       H  0.99875314  0.52868349  0.09495414     0.10200
C1538       C  0.95294763  0.60978749  0.13322076    -0.15700
C1539       C  0.95290398  0.62723207  0.14424863     0.03200
C1540       C  0.97398077  0.65359255  0.14804183    -0.11000
C1541       C  0.99383682  0.66405562  0.14020396    -0.01100
C1542       C  0.99340057  0.64737360  0.12900094    -0.06200
H1543       H  0.93676281  0.58933067  0.13053888     0.06200
H1544       H  0.00996444  0.68470005  0.14283047     0.09600
Br1545     Br  0.01710060  0.54696662  0.11821466    -0.05900
Br1546     Br  0.91341903  0.61240435  0.08890241    -0.02900
Br1547     Br  0.92245103  0.61549069  0.15334745     0.00000
Br1548     Br  0.02002169  0.66623066  0.11860386    -0.04400
C1549       C  0.05116364  0.61487630  0.18359133    -0.11800
C1550       C  0.05764572  0.57719203  0.17722939     0.03700
C1551       C  0.08338803  0.56141148  0.17742035    -0.12300
C1552       C  0.10264306  0.58287205  0.18389557     0.18500
C1553       C  0.09595166  0.61977858  0.19043394    -0.09400
C1554       C  0.07041511  0.63546603  0.19024138    -0.02300
H1555       H  0.08853543  0.53292810  0.17235063     0.05100
C1556       C  0.12976199  0.56689190  0.18371460     0.20500
H1557       H  0.06566109  0.66461449  0.19513590     0.10200
C1558       C  0.14699255  0.58207018  0.17529239    -0.15700
C1559       C  0.17274649  0.56671889  0.17482762     0.03200
C1560       C  0.18132408  0.53580017  0.18284904    -0.11000
C1561       C  0.16433295  0.52187874  0.19149309    -0.01100
C1562       C  0.13873779  0.53748182  0.19202994    -0.06200
H1563       H  0.14022947  0.60521153  0.16896095     0.06200
H1564       H  0.17070620  0.49742662  0.19757036     0.09600
Br1565     Br  0.12132145  0.65051540  0.19945564    -0.05900
Br1566     Br  0.03276679  0.54876987  0.16747561    -0.02900
Br1567     Br  0.19496774  0.58599210  0.16265961     0.00000
Br1568     Br  0.11641041  0.51674869  0.20399554    -0.04400
C1569       C  0.99376554  0.69730226  0.21695304    -0.11800
C1570       C  0.00049361  0.65893137  0.22302157     0.03700
C1571       C  0.00207193  0.65979077  0.23491145    -0.12300
C1572       C  0.99695934  0.69832800  0.24100642     0.18500
C1573       C  0.99140179  0.73721378  0.23498586    -0.09400
C1574       C  0.98991772  0.73653211  0.22302057    -0.02300
H1575       H  0.00687257  0.62998462  0.23945171     0.05100
C1576       C  0.99721384  0.69682789  0.25363425     0.20500
H1577       H  0.98487503  0.76625113  0.21849742     0.10200
C1578       C  0.02113692  0.69393674  0.25940089    -0.15700
C1579       C  0.02199496  0.69406540  0.27134133     0.03200
C1580       C  0.99866659  0.69664744  0.27769251    -0.11000
C1581       C  0.97469963  0.69692505  0.27191987    -0.01100
C1582       C  0.97383121  0.69689727  0.25998038    -0.06200
H1583       H  0.03920332  0.69253126  0.25459747     0.06200
H1584       H  0.95663413  0.69932822  0.27670349     0.09600
Br1585     Br  0.98552411  0.79168613  0.24279488    -0.05900
Br1586     Br  0.00841538  0.60437226  0.21552448    -0.02900
Br1587     Br  0.05539666  0.69064491  0.27862901     0.00000
Br1588     Br  0.94032575  0.69753952  0.25268871    -0.04400
C1589       C  0.71977236  0.85962416  0.33980671    -0.11800
C1590       C  0.73214905  0.88085447  0.34911238     0.03700
C1591       C  0.73381339  0.85961402  0.35971191    -0.12300
C1592       C  0.72315013  0.81767612  0.36128830     0.18500
C1593       C  0.71019206  0.79715922  0.35221084    -0.09400
C1594       C  0.70867432  0.81787398  0.34166187    -0.02300
H1595       H  0.74328419  0.87601956  0.36679647     0.05100
C1596       C  0.72428651  0.79649576  0.37259549     0.20500
H1597       H  0.69894079  0.80047863  0.33481665     0.10200
C1598       C  0.70219395  0.79826205  0.37959585    -0.15700
C1599       C  0.70217813  0.77844344  0.39030645     0.03200
C1600       C  0.72492218  0.75718615  0.39435660    -0.11000
C1601       C  0.74665266  0.75357260  0.38708604    -0.01100
C1602       C  0.74637482  0.77284182  0.37623055    -0.06200
H1603       H  0.68476546  0.81490904  0.37665464     0.06200
H1604       H  0.76412573  0.73694175  0.38996642     0.09600
Br1605     Br  0.69451777  0.74034356  0.35379027    -0.05900
Br1606     Br  0.74649902  0.93883871  0.34818831    -0.02900
Br1607     Br  0.66992922  0.77978771  0.39871314     0.00000
Br1608     Br  0.77629387  0.76580297  0.36655817    -0.04400
C1609       C  0.78738351  0.82953964  0.30261301    -0.11800
C1610       C  0.80253353  0.83435307  0.29268390     0.03700
C1611       C  0.82889501  0.82261104  0.29279254    -0.12300
C1612       C  0.84044612  0.80680608  0.30278303     0.18500
C1613       C  0.82510600  0.80048518  0.31260090    -0.09400
C1614       C  0.79866487  0.81181727  0.31245128    -0.02300
H1615       H  0.84064161  0.82730960  0.28520712     0.05100
C1616       C  0.86866985  0.79810816  0.30290815     0.20500
H1617       H  0.78729519  0.80930306  0.32022008     0.10200
C1618       C  0.88580602  0.83006882  0.30719708    -0.15700
C1619       C  0.91259520  0.82145526  0.30812037     0.03200
C1620       C  0.92235223  0.78032044  0.30465197    -0.11000
C1621       C  0.90514772  0.74917504  0.29997362    -0.01100
C1622       C  0.87851407  0.75773359  0.29911390    -0.06200
H1623       H  0.87817070  0.86123426  0.31015466     0.06200
H1624       H  0.91236393  0.71734976  0.29729447     0.09600
Br1625     Br  0.83982405  0.77876320  0.32652081    -0.05900
Br1626     Br  0.78843298  0.85986025  0.27908710    -0.02900
Br1627     Br  0.93430769  0.86506020  0.31516174     0.00000
Br1628     Br  0.85608312  0.71250200  0.29331576    -0.04400
C1629       C  0.65496362  0.97813591  0.30927367    -0.11800
C1630       C  0.65380536  0.01168555  0.31759388     0.03700
C1631       C  0.63366967  0.04253970  0.31729641    -0.12300
C1632       C  0.61427384  0.04058448  0.30889216     0.18500
C1633       C  0.61515530  0.00679010  0.30066117    -0.09400
C1634       C  0.63533356  0.97576208  0.30094650    -0.02300
H1635       H  0.63301753  0.06814420  0.32372109     0.05100
C1636       C  0.59290347  0.07328724  0.30917952     0.20500
H1637       H  0.63611724  0.95050394  0.29443509     0.10200
C1638       C  0.59028002  0.10371432  0.30029440    -0.15700
C1639       C  0.56970052  0.13407573  0.30025347     0.03200
C1640       C  0.55170182  0.13487185  0.30937803    -0.11000
C1641       C  0.55488616  0.10514986  0.31838731    -0.01100
C1642       C  0.57510640  0.07446071  0.31832568    -0.06200
H1643       H  0.60386460  0.10297658  0.29320913     0.06200
H1644       H  0.54092310  0.10468476  0.32533540     0.09600
Br1645     Br  0.58917465  0.00132489  0.28896439    -0.05900
Br1646     Br  0.67847281  0.01609373  0.32988550    -0.02900
Br1647     Br  0.56549851  0.16990417  0.28695706     0.00000
Br1648     Br  0.57630484  0.03261275  0.33050442    -0.04400
C1649       C  0.74949827  0.15012252  0.09332809    -0.11800
C1650       C  0.77241111  0.13008741  0.09755028     0.03700
C1651       C  0.77162450  0.10576542  0.10766251    -0.12300
C1652       C  0.74830251  0.10088756  0.11381525     0.18500
C1653       C  0.72576689  0.12299402  0.10999884    -0.09400
C1654       C  0.72652201  0.14733353  0.09985818    -0.02300
H1655       H  0.78936367  0.09053615  0.11075904     0.05100
C1656       C  0.74865291  0.07579459  0.12467702     0.20500
H1657       H  0.70888143  0.16313757  0.09692372     0.10200
C1658       C  0.76284239  0.09276250  0.13386601    -0.15700
C1659       C  0.76377285  0.07111372  0.14435407     0.03200
C1660       C  0.75002983  0.03105841  0.14591496    -0.11000
C1661       C  0.73653448  0.01334093  0.13650167    -0.01100
C1662       C  0.73586044  0.03518007  0.12596902    -0.06200
H1663       H  0.77320964  0.12348350  0.13288103     0.06200
H1664       H  0.72605359  0.98270424  0.13735671     0.09600
Br1665     Br  0.69373468  0.12176272  0.11849409    -0.05900
Br1666     Br  0.80568176  0.13684276  0.09020436    -0.02900
Br1667     Br  0.78483631  0.09886876  0.15587906     0.00000
Br1668     Br  0.71772622  0.00781356  0.11353773    -0.04400
C1669       C  0.66660077  0.01626189  0.18096229    -0.11800
C1670       C  0.65417853  0.05114527  0.17536574     0.03700
C1671       C  0.62705697  0.05580045  0.17630173    -0.12300
C1672       C  0.61235773  0.02608487  0.18280216     0.18500
C1673       C  0.62493123  0.99212338  0.18865595    -0.09400
C1674       C  0.65186817  0.98732245  0.18766160    -0.02300
H1675       H  0.61734439  0.08225686  0.17185370     0.05100
C1676       C  0.58395699  0.03163325  0.18359074     0.20500
H1677       H  0.66136650  0.96029629  0.19197912     0.10200
C1678       C  0.56770568  0.01117023  0.17554422    -0.15700
C1679       C  0.54093058  0.02039767  0.17531113     0.03200
C1680       C  0.53037165  0.04993905  0.18331080    -0.11000
C1681       C  0.54645037  0.06799702  0.19178753    -0.01100
C1682       C  0.57312887  0.05923790  0.19193776    -0.06200
H1683       H  0.57608204  0.98983308  0.16910292     0.06200
H1684       H  0.53851816  0.09155078  0.19781056     0.09600
Br1685     Br  0.60602420  0.95137887  0.19795046    -0.05900
Br1686     Br  0.67310956  0.09092140  0.16581629    -0.02900
Br1687     Br  0.52026425  0.99662173  0.16313377     0.00000
Br1688     Br  0.59442225  0.08852943  0.20305691    -0.04400
C1689       C  0.91721907  0.76256986  0.18355296    -0.11800
C1690       C  0.92008357  0.80641882  0.18738361     0.03700
C1691       C  0.89900513  0.83534545  0.18686090    -0.12300
C1692       C  0.87474539  0.82159023  0.18273743     0.18500
C1693       C  0.87138210  0.77749700  0.17941234    -0.09400
C1694       C  0.89254246  0.74830520  0.17986424    -0.02300
H1695       H  0.90161986  0.86904029  0.18958994     0.05100
C1696       C  0.85367234  0.85445155  0.18159639     0.20500
H1697       H  0.88987811  0.71478107  0.17701986     0.10200
C1698       C  0.84613939  0.86809270  0.17067150    -0.15700
C1699       C  0.82631070  0.89917078  0.16927547     0.03200
C1700       C  0.81414714  0.91786032  0.17890381    -0.11000
C1701       C  0.82244277  0.90561557  0.18982942    -0.01100
C1702       C  0.84187005  0.87379967  0.19123510    -0.06200
H1703       H  0.85544249  0.85398004  0.16321191     0.06200
H1704       H  0.81261259  0.91873389  0.19728246     0.09600
Br1705     Br  0.83823390  0.75580885  0.17430520    -0.05900
Br1706     Br  0.95186024  0.82898647  0.19386689    -0.02900
Br1707     Br  0.81608023  0.91474690  0.15408431     0.00000
Br1708     Br  0.85007245  0.85509536  0.20641776    -0.04400
C1709       C  0.72915790  0.93392653  0.21081582    -0.11800
C1710       C  0.74353810  0.90172256  0.21665084     0.03700
C1711       C  0.74168197  0.89886983  0.22857191    -0.12300
C1712       C  0.72534847  0.92747218  0.23472222     0.18500
C1713       C  0.70985213  0.95783366  0.22880303    -0.09400
C1714       C  0.71204630  0.96116129  0.21697009    -0.02300
H1715       H  0.75333626  0.87487847  0.23307533     0.05100
C1716       C  0.72443438  0.92529293  0.24729948     0.20500
H1717       H  0.70092464  0.98615349  0.21256442     0.10200
C1718       C  0.74154778  0.95101778  0.25384768    -0.15700
C1719       C  0.74073496  0.95010591  0.26581998     0.03200
C1720       C  0.72228231  0.92312240  0.27141824    -0.11000
C1721       C  0.70494463  0.89809113  0.26468037    -0.01100
C1722       C  0.70601950  0.89882642  0.25280121    -0.06200
H1723       H  0.75572424  0.97167892  0.24960819     0.06200
H1724       H  0.69050775  0.87714603  0.26864183     0.09600
Br1725     Br  0.68595723  0.99611044  0.23659241    -0.05900
Br1726     Br  0.76710780  0.86323553  0.20880011    -0.02900
Br1727     Br  0.76609624  0.98492077  0.27379950     0.00000
Br1728     Br  0.68210652  0.86271534  0.24438570    -0.04400
loop_ 
_geom_bond_atom_site_label_1 
_geom_bond_atom_site_label_2 
_geom_bond_distance 
_geom_bond_site_symmetry_2 
_ccdc_geom_bond_type 
O1           Cu9   2.052       .  S
O1           C11   1.283       .  A
O2           Cu9   2.051       .  S
O2           C12   1.285   1_565  A
O3           Cu9   1.972       .  S
O3           C13   1.271       .  A
O4           Cu9   1.963       .  S
O4           C14   1.271   1_565  A
O5          Cu10   2.030       .  S
O5           C14   1.280       .  A
O6          Cu10   2.038   1_565  S
O6           C13   1.282       .  A
O7          Cu10   1.986       .  S
O7           C12   1.272       .  A
O8          Cu10   1.972   1_565  S
O8           C11   1.272       .  A
Cu9         Cu10   2.371   1_565  S
C11        C1709   1.473       .  S
C12        C1660   1.497       .  S
C13        C1700   1.468       .  S
C14        C1669   1.462       .  S
O15         Cu23   1.975       .  S
O15          C25   1.274       .  A
O16         Cu23   1.971       .  S
O16          C26   1.273       .  A
O17         Cu23   2.032       .  S
O17          C27   1.280       .  A
O18         Cu23   2.033       .  S
O18          C28   1.281       .  A
O19         Cu24   1.979       .  S
O19          C28   1.273       .  A
O20         Cu24   1.967       .  S
O20          C27   1.271       .  A
O21         Cu24   2.046       .  S
O21          C26   1.283       .  A
O22         Cu24   2.048       .  S
O22          C25   1.283       .  A
Cu23        Cu24   2.368       .  S
C25        C1589   1.495       .  S
C26        C1720   1.491       .  S
C27        C1609   1.460       .  S
C28        C1629   1.476       .  S
O29         Cu37   2.038   1_455  S
O29          C39   1.282       .  A
O30         Cu37   2.044       .  S
O30          C40   1.283       .  A
O31         Cu37   1.980       .  S
O31          C41   1.272       .  A
O32         Cu37   1.978       .  S
O32          C42   1.273       .  A
O33         Cu38   2.050       .  S
O33          C42   1.283       .  A
O34         Cu38   2.054       .  S
O34          C41   1.284       .  A
O35         Cu38   1.975       .  S
O35          C40   1.272       .  A
O36         Cu38   1.966   1_455  S
O36          C39   1.272       .  A
Cu37        Cu38   2.369       .  S
C39        C1549   1.470       .  S
C40        C1689   1.482       .  S
C41        C1540   1.490       .  S
C42        C1569   1.480       .  S
O43         Cu51   1.988       .  S
O43          C53   1.276   1_455  A
O44         Cu51   1.986       .  S
O44          C54   1.273   1_455  A
O45         Cu51   2.036   1_655  S
O45          C55   1.282       .  A
O46         Cu51   2.031       .  S
O46          C56   1.281       .  A
O47         Cu52   1.971   1_455  S
O47          C56   1.272       .  A
O48         Cu52   1.959       .  S
O48          C55   1.271       .  A
O49         Cu52   2.044       .  S
O49          C54   1.282       .  A
O50         Cu52   2.045       .  S
O50          C53   1.282       .  A
Cu51        Cu52   2.372   1_455  S
C53        C1500   1.493       .  S
C54        C1580   1.474       .  S
C55        C1620   1.471       .  S
C56        C1520   1.471       .  S
O57         Cu65   2.038       .  S
O57          C67   1.282       .  A
O58         Cu65   2.032       .  S
O58          C68   1.280       .  A
O59         Cu65   1.980       .  S
O59          C69   1.274       .  A
O60         Cu65   1.981       .  S
O60          C70   1.274       .  A
O61         Cu66   2.041       .  S
O61          C70   1.282       .  A
O62         Cu66   2.042       .  S
O62          C69   1.283       .  A
O63         Cu66   1.957       .  S
O63          C68   1.271       .  A
O64         Cu66   1.970       .  S
O64          C67   1.272       .  A
Cu65        Cu66   2.372       .  S
C67        C1449   1.476       .  S
C68        C1680   1.459       .  S
C69        C1480   1.479       .  S
C70        C1429   1.487       .  S
O71         Cu79   1.976       .  S
O71          C81   1.273       .  A
O72         Cu79   1.992       .  S
O72          C82   1.275       .  A
O73         Cu79   2.034       .  S
O73          C83   1.281       .  A
O74         Cu79   2.026       .  S
O74          C84   1.280       .  A
O75         Cu80   1.964       .  S
O75          C84   1.272       .  A
O76         Cu80   1.978       .  S
O76          C83   1.273       .  A
O77         Cu80   2.055       .  S
O77          C82   1.284       .  A
O78         Cu80   2.053       .  S
O78          C81   1.284       .  A
Cu79        Cu80   2.368       .  S
C81        C1469   1.486       .  S
C82        C1400   1.497       .  S
C83        C1640   1.477       .  S
C84        C1420   1.476       .  S
O85         Cu93   2.045       .  S
O85          C95   1.283       .  A
O86         Cu93   2.037       .  S
O86          C96   1.282       .  A
O87         Cu93   1.964       .  S
O87          C97   1.271       .  A
O88         Cu93   1.977       .  S
O88          C98   1.274       .  A
O89         Cu94   2.036       .  S
O89          C98   1.281       .  A
O90         Cu94   2.035       .  S
O90          C97   1.281       .  A
O91         Cu94   1.991       .  S
O91          C96   1.274       .  A
O92         Cu94   1.992       .  S
O92          C95   1.274       .  A
Cu93        Cu94   2.369       .  S
C95        C1360   1.496       .  S
C96        C1380   1.476       .  S
C97        C1560   1.462       .  S
C98        C1460   1.490       .  S
O99        Cu107   1.977       .  S
O99         C109   1.274       .  A
O100       Cu107   1.959       .  S
O100        C110   1.271       .  A
O101       Cu107   2.037       .  S
O101        C111   1.281       .  A
O102       Cu107   2.039       .  S
O102        C112   1.282       .  A
O103       Cu108   2.005       .  S
O103        C112   1.276       .  A
O104       Cu108   1.997       .  S
O104        C111   1.277       .  A
O105       Cu108   2.019       .  S
O105        C110   1.278       .  A
O106       Cu108   2.023       .  S
O106        C109   1.280       .  A
Cu107      Cu108   2.371       .  S
C109       C1509   1.476       .  S
C110       C1409   1.452       .  S
C111       C1369   1.495       .  S
C112       C1340   1.491       .  S
O113       Cu121   1.986       .  S
O113        C123   1.273       .  A
O114       Cu121   1.983       .  S
O114        C124   1.274       .  A
O115       Cu121   2.039       .  S
O115        C125   1.282       .  A
O116       Cu121   2.036       .  S
O116        C126   1.282       .  A
O117       Cu122   1.975   1_545  S
O117        C126   1.272   1_545  A
O118       Cu122   1.957       .  S
O118        C125   1.271       .  A
O119       Cu122   2.039       .  S
O119        C124   1.282       .  A
O120       Cu122   2.041       .  S
O120        C123   1.283       .  A
Cu121      Cu122   2.371       .  S
C123       C1249   1.480       .  S
C124       C1320   1.482       .  S
C125       C1280   1.470       .  S
C126       C1289   1.480   1_565  S
O127       Cu135   2.035       .  S
O127        C137   1.281       .  A
O128       Cu135   2.037   1_565  S
O128        C138   1.282       .  A
O129       Cu135   1.985       .  S
O129        C139   1.274   1_545  A
O130       Cu135   1.976   1_565  S
O130        C140   1.274       .  A
O131       Cu136   2.039       .  S
O131        C140   1.282       .  A
O132       Cu136   2.038       .  S
O132        C139   1.282       .  A
O133       Cu136   1.987       .  S
O133        C138   1.274       .  A
O134       Cu136   1.964       .  S
O134        C137   1.272   1_565  A
Cu135      Cu136   2.371   1_545  S
C137       C1220   1.464       .  S
C138       C1240   1.476       .  S
C139       C1189   1.484   1_565  S
C140       C1309   1.485       .  S
O141       Cu149   1.972       .  S
O141        C151   1.272       .  A
O142       Cu149   1.978       .  S
O142        C152   1.273       .  A
O143       Cu149   2.032       .  S
O143        C153   1.281       .  A
O144       Cu149   2.031       .  S
O144        C154   1.281       .  A
O145       Cu150   1.982       .  S
O145        C154   1.274       .  A
O146       Cu150   1.985       .  S
O146        C153   1.275       .  A
O147       Cu150   2.022       .  S
O147        C152   1.280       .  A
O148       Cu150   2.023       .  S
O148        C151   1.279       .  A
Cu149      Cu150   2.373       .  S
C151       C1269   1.460       .  S
C152       C1149   1.467       .  S
C153       C1129   1.486       .  S
C154       C1169   1.478       .  S
O155       Cu163   2.041       .  S
O155        C165   1.282       .  A
O156       Cu163   2.037       .  S
O156        C166   1.281       .  A
O157       Cu163   1.987       .  S
O157        C167   1.274       .  A
O158       Cu163   1.990       .  S
O158        C168   1.275       .  A
O159       Cu164   2.034       .  S
O159        C168   1.281       .  A
O160       Cu164   2.029       .  S
O160        C167   1.281       .  A
O161       Cu164   1.956       .  S
O161        C166   1.271       .  A
O162       Cu164   1.971       .  S
O162        C165   1.273       .  A
Cu163      Cu164   2.371       .  S
C165       C1229   1.486       .  S
C166       C1120   1.464       .  S
C167       C1180   1.478       .  S
C168       C1089   1.478       .  S
O169       Cu177   2.037       .  S
O169        C179   1.282       .  A
O170       Cu177   2.036       .  S
O170        C180   1.282       .  A
O171       Cu177   1.999       .  S
O171        C181   1.276       .  A
O172       Cu177   1.989       .  S
O172        C182   1.275       .  A
O173       Cu178   2.036       .  S
O173        C182   1.282       .  A
O174       Cu178   2.038       .  S
O174        C181   1.282       .  A
O175       Cu178   1.973       .  S
O175        C180   1.273       .  A
O176       Cu178   1.955       .  S
O176        C179   1.270       .  A
Cu177      Cu178   2.371       .  S
C179       C1109   1.465       .  S
C180       C1049   1.479       .  S
C181       C1029   1.486       .  S
C182       C1069   1.483       .  S
O183       Cu191   1.974       .  S
O183        C193   1.274       .  A
O184       Cu191   1.964       .  S
O184        C194   1.271       .  A
O185       Cu191   2.029       .  S
O185        C195   1.281       .  A
O186       Cu191   2.033       .  S
O186        C196   1.281       .  A
O187       Cu192   1.990       .  S
O187        C196   1.275       .  A
O188       Cu192   1.992       .  S
O188        C195   1.274       .  A
O189       Cu192   2.028       .  S
O189        C194   1.280       .  A
O190       Cu192   2.029       .  S
O190        C193   1.280       .  A
Cu191      Cu192   2.373       .  S
C193       C1160   1.473       .  S
C194       C1009   1.458       .  S
C195       C1080   1.483       .  S
C196        C989   1.478       .  S
O197       Cu205   2.050       .  S
O197        C207   1.283       .  A
O198       Cu205   2.051   1_455  S
O198        C208   1.284       .  A
O199       Cu205   1.978       .  S
O199        C209   1.272       .  A
O200       Cu205   1.982       .  S
O200        C210   1.272       .  A
O201       Cu206   2.049       .  S
O201        C210   1.284       .  A
O202       Cu206   2.047       .  S
O202        C209   1.284       .  A
O203       Cu206   1.950   1_455  S
O203        C208   1.270       .  A
O204       Cu206   1.961       .  S
O204        C207   1.272       .  A
Cu205      Cu206   2.369       .  S
C207       C1060   1.479       .  S
C208       C1209   1.478       .  S
C209        C969   1.478       .  S
C210        C960   1.489       .  S
O211       Cu219   1.960       .  S
O211        C221   1.272       .  A
O212       Cu219   1.969   1_455  S
O212        C222   1.273       .  A
O213       Cu219   2.046       .  S
O213        C223   1.283       .  A
O214       Cu219   2.049       .  S
O214        C224   1.283       .  A
O215       Cu220   1.978       .  S
O215        C224   1.273       .  A
O216       Cu220   1.987       .  S
O216        C223   1.273       .  A
O217       Cu220   2.037   1_455  S
O217        C222   1.282       .  A
O218       Cu220   2.033       .  S
O218        C221   1.282       .  A
Cu219      Cu220   2.372       .  S
C221       C1020   1.473       .  S
C222       C1300   1.476       .  S
C223        C940   1.484       .  S
C224        C980   1.475       .  S
O225       Cu233   2.039       .  S
O225        C235   1.281       .  A
O226       Cu233   2.040       .  S
O226        C236   1.282       .  A
O227       Cu233   1.988       .  S
O227        C237   1.275       .  A
O228       Cu233   1.981       .  S
O228        C238   1.275       .  A
O229       Cu234   2.044       .  S
O229        C238   1.282       .  A
O230       Cu234   2.049       .  S
O230        C237   1.283       .  A
O231       Cu234   1.983       .  S
O231        C236   1.274       .  A
O232       Cu234   1.967       .  S
O232        C235   1.271       .  A
Cu233      Cu234   2.366       .  S
C235        C869   1.466       .  S
C236        C889   1.483       .  S
C237       C1040   1.498       .  S
C238        C909   1.495       .  S
O239       Cu247   1.977       .  S
O239        C249   1.272       .  A
O240       Cu247   1.976       .  S
O240        C250   1.272       .  A
O241       Cu247   2.042       .  S
O241        C251   1.283       .  A
O242       Cu247   2.040       .  S
O242        C252   1.282       .  A
O243       Cu248   1.968       .  S
O243        C252   1.271       .  A
O244       Cu248   1.970       .  S
O244        C251   1.271       .  A
O245       Cu248   2.047       .  S
O245        C250   1.283       .  A
O246       Cu248   2.044       .  S
O246        C249   1.283       .  A
Cu247      Cu248   2.372       .  S
C249        C920   1.474       .  S
C250       C1600   1.482       .  S
C251        C849   1.475       .  S
C252        C829   1.471       .  S
O253       Cu261   1.974       .  S
O253        C263   1.273       .  A
O254       Cu261   1.997   1_445  S
O254        C264   1.275       .  A
O255       Cu261   2.037       .  S
O255        C265   1.282       .  A
O256       Cu261   2.029       .  S
O256        C266   1.281       .  A
O257       Cu262   1.987       .  S
O257        C266   1.275   1_455  A
O258       Cu262   1.993       .  S
O258        C265   1.275   1_455  A
O259       Cu262   2.035       .  S
O259        C264   1.282   1_565  A
O260       Cu262   2.034   1_655  S
O260        C263   1.281       .  A
Cu261      Cu262   2.371   1_655  S
C263        C840   1.470       .  S
C264        C789   1.486       .  S
C265       C1489   1.479       .  S
C266        C809   1.482       .  S
O267       Cu275   2.034       .  S
O267        C277   1.282   1_565  A
O268       Cu275   2.027       .  S
O268        C278   1.280       .  A
O269       Cu275   1.964   1_445  S
O269        C279   1.272       .  A
O270       Cu275   1.986       .  S
O270        C280   1.275       .  A
O271       Cu276   2.042   1_565  S
O271        C280   1.282       .  A
O272       Cu276   2.034       .  S
O272        C279   1.281   1_655  A
O273       Cu276   1.991       .  S
O273        C278   1.275   1_545  A
O274       Cu276   1.995       .  S
O274        C277   1.275       .  A
Cu275      Cu276   2.369   1_565  S
C277        C949   1.483       .  S
C278        C820   1.480       .  S
C279        C769   1.463       .  S
C280        C900   1.496       .  S
O281       Cu289   1.968       .  S
O281        C291   1.272       .  A
O282       Cu289   1.977       .  S
O282        C292   1.273       .  A
O283       Cu289   2.057       .  S
O283        C293   1.284       .  A
O284       Cu289   2.048       .  S
O284        C294   1.284       .  A
O285       Cu290   1.982       .  S
O285        C294   1.271       .  A
O286       Cu290   1.986       .  S
O286        C293   1.274       .  A
O287       Cu290   2.043       .  S
O287        C292   1.282       .  A
O288       Cu290   2.037       .  S
O288        C291   1.281       .  A
Cu289      Cu290   2.366       .  S
C291        C729   1.465       .  S
C292        C800   1.487       .  S
C293       C1329   1.492       .  S
C294        C749   1.496       .  S
O295       Cu303   2.041       .  S
O295        C305   1.282       .  A
O296       Cu303   2.044       .  S
O296        C306   1.282       .  A
O297       Cu303   1.965       .  S
O297        C307   1.272       .  A
O298       Cu303   1.976       .  S
O298        C308   1.273       .  A
O299       Cu304   2.040       .  S
O299        C308   1.282       .  A
O300       Cu304   2.035       .  S
O300        C307   1.282       .  A
O301       Cu304   1.987       .  S
O301        C306   1.273       .  A
O302       Cu304   1.989       .  S
O302        C305   1.275       .  A
Cu303      Cu304   2.370       .  S
C305       C1200   1.491       .  S
C306        C760   1.473       .  S
C307        C780   1.477       .  S
C308        C720   1.478       .  S
O309       Cu317   2.033       .  S
O309        C319   1.280       .  A
O310       Cu317   2.037       .  S
O310        C320   1.282       .  A
O311       Cu317   1.984       .  S
O311        C321   1.274       .  A
O312       Cu317   1.978       .  S
O312        C322   1.274       .  A
O313       Cu318   2.040       .  S
O313        C322   1.282       .  A
O314       Cu318   2.041       .  S
O314        C321   1.282       .  A
O315       Cu318   1.986       .  S
O315        C320   1.274       .  A
O316       Cu318   1.971       .  S
O316        C319   1.272       .  A
Cu317      Cu318   2.372       .  S
C319        C880   1.461       .  S
C320        C709   1.478       .  S
C321       C1100   1.480       .  S
C322        C700   1.486       .  S
O323       Cu331   1.977       .  S
O323        C333   1.274       .  A
O324       Cu331   1.959       .  S
O324        C334   1.270       .  A
O325       Cu331   2.044       .  S
O325        C335   1.282       .  A
O326       Cu331   2.047       .  S
O326        C336   1.283       .  A
O327       Cu332   1.999       .  S
O327        C336   1.275       .  A
O328       Cu332   1.983       .  S
O328        C335   1.274       .  A
O329       Cu332   2.034       .  S
O329        C334   1.281       .  A
O330       Cu332   2.031       .  S
O330        C333   1.281       .  A
Cu331      Cu332   2.372       .  S
C333        C860   1.480       .  S
C334        C740   1.460       .  S
C335        C689   1.481       .  S
C336       C1389   1.487       .  S
O337       Cu345   1.979       .  S
O337        C347   1.273       .  A
O338       Cu345   1.983       .  S
O338        C348   1.275       .  A
O339       Cu345   2.036       .  S
O339        C349   1.281       .  A
O340       Cu345   2.034       .  S
O340        C350   1.281       .  A
O341       Cu346   1.963       .  S
O341        C350   1.271       .  A
O342       Cu346   1.975       .  S
O342        C349   1.272       .  A
O343       Cu346   2.043       .  S
O343        C348   1.282       .  A
O344       Cu346   2.041       .  S
O344        C347   1.283       .  A
Cu345      Cu346   2.370       .  S
C347        C669   1.483       .  S
C348       C1260   1.489       .  S
C349        C660   1.474       .  S
C350        C629   1.469       .  S
O351       Cu359   2.031       .  S
O351        C361   1.281       .  A
O352       Cu359   2.034       .  S
O352        C362   1.281       .  A
O353       Cu359   1.998       .  S
O353        C363   1.275       .  A
O354       Cu359   1.983       .  S
O354        C364   1.273       .  A
O355       Cu360   2.045       .  S
O355        C364   1.282       .  A
O356       Cu360   2.044       .  S
O356        C363   1.282       .  A
O357       Cu360   1.979       .  S
O357        C362   1.273       .  A
O358       Cu360   1.969       .  S
O358        C361   1.272       .  A
Cu359      Cu360   2.372       .  S
C361        C600   1.472       .  S
C362        C620   1.467       .  S
C363       C1349   1.484       .  S
C364        C680   1.473       .  S
O365       Cu373   1.985       .  S
O365        C375   1.274       .  A
O366       Cu373   1.981       .  S
O366        C376   1.273       .  A
O367       Cu373   2.034       .  S
O367        C377   1.281       .  A
O368       Cu373   2.040       .  S
O368        C378   1.282       .  A
O369       Cu374   1.972       .  S
O369        C378   1.273       .  A
O370       Cu374   1.964       .  S
O370        C377   1.271       .  A
O371       Cu374   2.039       .  S
O371        C376   1.283       .  A
O372       Cu374   2.039       .  S
O372        C375   1.282       .  A
Cu373      Cu374   2.373       .  S
C375       C1000   1.477       .  S
C376        C569   1.484       .  S
C377        C529   1.464       .  S
C378        C549   1.474       .  S
O379       Cu387   2.052       .  S
O379        C389   1.284       .  A
O380       Cu387   2.051       .  S
O380        C390   1.284       .  A
O381       Cu387   1.998       .  S
O381        C391   1.275       .  A
O382       Cu387   1.983       .  S
O382        C392   1.273       .  A
O383       Cu388   2.039       .  S
O383        C392   1.282       .  A
O384       Cu388   2.047       .  S
O384        C391   1.283       .  A
O385       Cu388   1.970       .  S
O385        C390   1.273       .  A
O386       Cu388   1.948       .  S
O386        C389   1.269       .  A
Cu387      Cu388   2.369       .  S
C389        C489   1.471       .  S
C390        C520   1.488       .  S
C391       C1649   1.489       .  S
C392        C580   1.477       .  S
O393       Cu401   1.966       .  S
O393        C403   1.271       .  A
O394       Cu401   1.973       .  S
O394        C404   1.273       .  A
O395       Cu401   2.029       .  S
O395        C405   1.281       .  A
O396       Cu401   2.032       .  S
O396        C406   1.281       .  A
O397       Cu402   1.965       .  S
O397        C406   1.272       .  A
O398       Cu402   1.981       .  S
O398        C405   1.273       .  A
O399       Cu402   2.034       .  S
O399        C404   1.281       .  A
O400       Cu402   2.036       .  S
O400        C403   1.281       .  A
Cu401      Cu402   2.376       .  S
C403        C640   1.461       .  S
C404        C560   1.471       .  S
C405       C1140   1.479       .  S
C406        C480   1.468       .  S
O407       Cu415   2.031       .  S
O407        C417   1.280       .  A
O408       Cu415   2.034       .  S
O408        C418   1.281       .  A
O409       Cu415   1.975       .  S
O409        C419   1.272       .  A
O410       Cu415   1.958       .  S
O410        C420   1.272   1_565  A
O411       Cu416   2.038   1_545  S
O411        C420   1.281       .  A
O412       Cu416   2.040       .  S
O412        C419   1.283       .  A
O413       Cu416   1.982       .  S
O413        C418   1.274       .  A
O414       Cu416   1.970       .  S
O414        C417   1.274       .  A
Cu415      Cu416   2.370       .  S
C417        C469   1.481       .  S
C418       C1440   1.482       .  S
C419        C609   1.479       .  S
C420        C500   1.470       .  S
O421       Cu429   1.992       .  S
O421        C431   1.276       .  A
O422       Cu429   1.988       .  S
O422        C432   1.275       .  A
O423       Cu429   2.027       .  S
O423        C433   1.280       .  A
O424       Cu429   2.024   1_455  S
O424        C434   1.280       .  A
O425       Cu430   1.983   1_455  S
O425        C434   1.274       .  A
O426       Cu430   1.976       .  S
O426        C433   1.273       .  A
O427       Cu430   2.038       .  S
O427        C432   1.282       .  A
O428       Cu430   2.043       .  S
O428        C431   1.282       .  A
Cu429      Cu430   2.370       .  S
C431        C929   1.499       .  S
C432        C449   1.483       .  S
C433        C540   1.466       .  S
C434        C649   1.475       .  S
O435       Cu443   2.045       .  S
O435        C445   1.283       .  A
O436       Cu443   2.044       .  S
O436        C446   1.283       .  A
O437       Cu443   1.970   1_455  S
O437        C447   1.272       .  A
O438       Cu443   1.983       .  S
O438        C448   1.273       .  A
O439       Cu444   2.040       .  S
O439        C448   1.282       .  A
O440       Cu444   2.026       .  S
O440        C447   1.279   1_655  A
O441       Cu444   1.982       .  S
O441        C446   1.273       .  A
O442       Cu444   1.990       .  S
O442        C445   1.274       .  A
Cu443      Cu444   2.372       .  S
C445       C1529   1.493       .  S
C446        C460   1.480       .  S
C447        C589   1.458       .  S
C448        C509   1.473       .  S
C449        C450   1.413       .  A
C449        C454   1.407       .  A
C450        C451   1.404       .  A
C450       Br466   1.919       .  S
C451        C452   1.403       .  A
C451        H455   1.083       .  S
C452        C456   1.479       .  S
C452        C453   1.404       .  A
C453        C454   1.397       .  A
C453       Br465   1.919   1_655  S
C454        H457   1.084   1_655  S
C456        C458   1.405   1_556  A
C456        C462   1.404   1_556  A
C458        C459   1.403       .  A
C458        H463   1.083   1_554  S
C459        C460   1.409       .  A
C459       Br467   1.918       .  S
C460        C461   1.408       .  A
C461        C462   1.398       .  A
C461        H464   1.084       .  S
C462       Br468   1.919   1_554  S
C469        C470   1.413       .  A
C469        C474   1.409       .  A
C470        C471   1.402       .  A
C470       Br486   1.918       .  S
C471        C472   1.404   1_554  A
C471        H475   1.084   1_554  S
C472        C476   1.473       .  S
C472        C473   1.401   1_556  A
C473        C474   1.391       .  A
C473       Br485   1.920   1_564  S
C474        H477   1.083   1_565  S
C476        C478   1.405       .  A
C476        C482   1.404       .  A
C478        C479   1.398       .  A
C478        H483   1.084       .  S
C479        C480   1.408       .  A
C479       Br487   1.919       .  S
C480        C481   1.405       .  A
C481        C482   1.394       .  A
C481        H484   1.084       .  S
C482       Br488   1.919       .  S
C489        C490   1.412       .  A
C489        C494   1.404       .  A
C490        C491   1.388       .  A
C490       Br506   1.920       .  S
C491        C492   1.396       .  A
C491        H495   1.084       .  S
C492        C496   1.473       .  S
C492        C493   1.410       .  A
C493        C494   1.405       .  A
C493       Br505   1.917       .  S
C494        H497   1.083       .  S
C496        C498   1.406       .  A
C496        C502   1.406       .  A
C498        C499   1.404       .  A
C498        H503   1.083       .  S
C499        C500   1.410       .  A
C499       Br507   1.919       .  S
C500        C501   1.403       .  A
C501        C502   1.388       .  A
C501        H504   1.084   1_545  S
C502       Br508   1.922       .  S
C509        C510   1.408       .  A
C509        C514   1.402       .  A
C510        C511   1.403       .  A
C510       Br526   1.919       .  S
C511        C512   1.407       .  A
C511        H515   1.083       .  S
C512        C516   1.486       .  S
C512        C513   1.409       .  A
C513        C514   1.398       .  A
C513       Br525   1.919       .  S
C514        H517   1.084       .  S
C516        C518   1.409       .  A
C516        C522   1.405       .  A
C518        C519   1.406       .  A
C518        H523   1.083       .  S
C519        C520   1.411       .  A
C519       Br527   1.918       .  S
C520        C521   1.410       .  A
C521        C522   1.395       .  A
C521        H524   1.083       .  S
C522       Br528   1.921       .  S
C529        C530   1.411       .  A
C529        C534   1.400       .  A
C530        C531   1.395       .  A
C530       Br546   1.922       .  S
C531        C532   1.398       .  A
C531        H535   1.084       .  S
C532        C536   1.470       .  S
C532        C533   1.409       .  A
C533        C534   1.399       .  A
C533       Br545   1.918       .  S
C534        H537   1.084       .  S
C536        C538   1.404       .  A
C536        C542   1.403       .  A
C538        C539   1.400       .  A
C538        H543   1.083       .  S
C539        C540   1.406       .  A
C539       Br547   1.918       .  S
C540        C541   1.404       .  A
C541        C542   1.395       .  A
C541        H544   1.083       .  S
C542       Br548   1.919       .  S
C549        C550   1.409       .  A
C549        C554   1.404       .  A
C550        C551   1.403       .  A
C550       Br566   1.918       .  S
C551        C552   1.406       .  A
C551        H555   1.083       .  S
C552        C556   1.480       .  S
C552        C553   1.407       .  A
C553        C554   1.394       .  A
C553       Br565   1.920       .  S
C554        H557   1.084       .  S
C556        C558   1.401       .  A
C556        C562   1.411       .  A
C558        C559   1.395       .  A
C558        H563   1.084       .  S
C559        C560   1.410   1_545  A
C559       Br567   1.921       .  S
C560        C561   1.403       .  A
C561        C562   1.401   1_565  A
C561        H564   1.084       .  S
C562       Br568   1.919       .  S
C569        C570   1.420       .  A
C569        C574   1.405       .  A
C570        C571   1.397       .  A
C570       Br586   1.924       .  S
C571        C572   1.397       .  A
C571        H575   1.084       .  S
C572        C576   1.478   1_556  S
C572        C573   1.409       .  A
C573        C574   1.402       .  A
C573       Br585   1.917       .  S
C574        H577   1.083       .  S
C576        C578   1.403       .  A
C576        C582   1.406       .  A
C578        C579   1.402       .  A
C578        H583   1.083       .  S
C579        C580   1.410       .  A
C579       Br587   1.919       .  S
C580        C581   1.406       .  A
C581        C582   1.398       .  A
C581        H584   1.084       .  S
C582       Br588   1.920   1_554  S
C589        C590   1.405       .  A
C589        C594   1.402       .  A
C590        C591   1.396       .  A
C590       Br606   1.919       .  S
C591        C592   1.402       .  A
C591        H595   1.084       .  S
C592        C596   1.470       .  S
C592        C593   1.407       .  A
C593        C594   1.397       .  A
C593       Br605   1.918       .  S
C594        H597   1.084       .  S
C596        C598   1.404       .  A
C596        C602   1.402       .  A
C598        C599   1.400       .  A
C598        H603   1.084       .  S
C599        C600   1.407       .  A
C599       Br607   1.918       .  S
C600        C601   1.407       .  A
C601        C602   1.393       .  A
C601        H604   1.084       .  S
C602       Br608   1.920       .  S
C609        C610   1.415       .  A
C609        C614   1.403       .  A
C610        C611   1.396       .  A
C610       Br626   1.921       .  S
C611        C612   1.399       .  A
C611        H615   1.084       .  S
C612        C616   1.481       .  S
C612        C613   1.411       .  A
C613        C614   1.401       .  A
C613       Br625   1.919       .  S
C614        H617   1.083       .  S
C616        C618   1.404       .  A
C616        C622   1.410       .  A
C618        C619   1.398       .  A
C618        H623   1.084       .  S
C619        C620   1.407       .  A
C619       Br627   1.918       .  S
C620        C621   1.402       .  A
C621        C622   1.400       .  A
C621        H624   1.084       .  S
C622       Br628   1.919       .  S
C629        C630   1.412       .  A
C629        C634   1.401       .  A
C630        C631   1.393       .  A
C630       Br646   1.922       .  S
C631        C632   1.398       .  A
C631        H635   1.084       .  S
C632        C636   1.475       .  S
C632        C633   1.411       .  A
C633        C634   1.400       .  A
C633       Br645   1.918       .  S
C634        H637   1.083       .  S
C636        C638   1.403       .  A
C636        C642   1.409       .  A
C638        C639   1.395       .  A
C638        H643   1.084       .  S
C639        C640   1.405       .  A
C639       Br647   1.919       .  S
C640        C641   1.402       .  A
C641        C642   1.399       .  A
C641        H644   1.084       .  S
C642       Br648   1.919       .  S
C649        C650   1.411       .  A
C649        C654   1.406       .  A
C650        C651   1.399       .  A
C650       Br666   1.920       .  S
C651        C652   1.403       .  A
C651        H655   1.084       .  S
C652        C656   1.477       .  S
C652        C653   1.406       .  A
C653        C654   1.396       .  A
C653       Br665   1.919       .  S
C654        H657   1.084       .  S
C656        C658   1.399       .  A
C656        C662   1.410       .  A
C658        C659   1.395       .  A
C658        H663   1.084       .  S
C659        C660   1.412       .  A
C659       Br667   1.920       .  S
C660        C661   1.403       .  A
C661        C662   1.401       .  A
C661        H664   1.083       .  S
C662       Br668   1.919       .  S
C669        C670   1.416       .  A
C669        C674   1.405       .  A
C670        C671   1.398       .  A
C670       Br686   1.923       .  S
C671        C672   1.400       .  A
C671        H675   1.084       .  S
C672        C676   1.481   1_556  S
C672        C673   1.409       .  A
C673        C674   1.402       .  A
C673       Br685   1.918       .  S
C674        H677   1.083       .  S
C676        C678   1.399       .  A
C676        C682   1.412       .  A
C678        C679   1.395       .  A
C678        H683   1.084       .  S
C679        C680   1.410       .  A
C679       Br687   1.918       .  S
C680        C681   1.403       .  A
C681        C682   1.405       .  A
C681        H684   1.083       .  S
C682       Br688   1.918   1_554  S
C689        C690   1.415       .  A
C689        C694   1.405       .  A
C690        C691   1.393       .  A
C690       Br706   1.922       .  S
C691        C692   1.396       .  A
C691        H695   1.084       .  S
C692        C696   1.480       .  S
C692        C693   1.412       .  A
C693        C694   1.407       .  A
C693       Br705   1.918       .  S
C694        H697   1.083       .  S
C696        C698   1.404       .  A
C696        C702   1.404       .  A
C698        C699   1.403       .  A
C698        H703   1.084       .  S
C699        C700   1.415       .  A
C699       Br707   1.921       .  S
C700        C701   1.409       .  A
C701        C702   1.397       .  A
C701        H704   1.083       .  S
C702       Br708   1.919       .  S
C709        C710   1.413       .  A
C709        C714   1.404       .  A
C710        C711   1.398       .  A
C710       Br726   1.921       .  S
C711        C712   1.401       .  A
C711        H715   1.084       .  S
C712        C716   1.481       .  S
C712        C713   1.411       .  A
C713        C714   1.402       .  A
C713       Br725   1.919       .  S
C714        H717   1.083       .  S
C716        C718   1.400       .  A
C716        C722   1.410       .  A
C718        C719   1.396       .  A
C718        H723   1.084       .  S
C719        C720   1.413       .  A
C719       Br727   1.921       .  S
C720        C721   1.404       .  A
C721        C722   1.403       .  A
C721        H724   1.083       .  S
C722       Br728   1.918       .  S
C729        C730   1.411       .  A
C729        C734   1.400       .  A
C730        C731   1.396       .  A
C730       Br746   1.921       .  S
C731        C732   1.399       .  A
C731        H735   1.084       .  S
C732        C736   1.472       .  S
C732        C733   1.409       .  A
C733        C734   1.399       .  A
C733       Br745   1.918       .  S
C734        H737   1.084       .  S
C736        C738   1.406       .  A
C736        C742   1.404       .  A
C738        C739   1.399       .  A
C738        H743   1.084       .  S
C739        C740   1.402       .  A
C739       Br747   1.917       .  S
C740        C741   1.405       .  A
C741        C742   1.395       .  A
C741        H744   1.084       .  S
C742       Br748   1.919       .  S
C749        C750   1.425       .  A
C749        C754   1.409       .  A
C750        C751   1.398       .  A
C750       Br766   1.925       .  S
C751        C752   1.396       .  A
C751        H755   1.084       .  S
C752        C756   1.481       .  S
C752        C753   1.407       .  A
C753        C754   1.403       .  A
C753       Br765   1.918       .  S
C754        H757   1.083       .  S
C756        C758   1.401       .  A
C756        C762   1.410       .  A
C758        C759   1.398       .  A
C758        H763   1.084       .  S
C759        C760   1.409       .  A
C759       Br767   1.914       .  S
C760        C761   1.403       .  A
C761        C762   1.404       .  A
C761        H764   1.083       .  S
C762       Br768   1.918       .  S
C769        C770   1.405       .  A
C769        C774   1.403       .  A
C770        C771   1.399       .  A
C770       Br786   1.918       .  S
C771        C772   1.406       .  A
C771        H775   1.083       .  S
C772        C776   1.474       .  S
C772        C773   1.406       .  A
C773        C774   1.394       .  A
C773       Br785   1.920       .  S
C774        H777   1.084       .  S
C776        C778   1.406       .  A
C776        C782   1.402       .  A
C778        C779   1.400       .  A
C778        H783   1.084       .  S
C779        C780   1.409       .  A
C779       Br787   1.919       .  S
C780        C781   1.408       .  A
C781        C782   1.393       .  A
C781        H784   1.084       .  S
C782       Br788   1.919       .  S
C789        C790   1.417       .  A
C789        C794   1.406       .  A
C790        C791   1.401       .  A
C790       Br806   1.921       .  S
C791        C792   1.399       .  A
C791        H795   1.084       .  S
C792        C796   1.480       .  S
C792        C793   1.408       .  A
C793        C794   1.402       .  A
C793       Br805   1.919       .  S
C794        H797   1.083       .  S
C796        C798   1.404       .  A
C796        C802   1.403       .  A
C798        C799   1.405       .  A
C798        H803   1.083       .  S
C799        C800   1.414       .  A
C799       Br807   1.919       .  S
C800        C801   1.409       .  A
C801        C802   1.396       .  A
C801        H804   1.084       .  S
C802       Br808   1.919       .  S
C809        C810   1.414       .  A
C809        C814   1.407   1_655  A
C810        C811   1.401       .  A
C810       Br826   1.920   1_565  S
C811        C812   1.404       .  A
C811        H815   1.084   1_565  S
C812        C816   1.481       .  S
C812        C813   1.406   1_655  A
C813        C814   1.397       .  A
C813       Br825   1.919       .  S
C814        H817   1.084       .  S
C816        C818   1.406       .  A
C816        C822   1.405   1_565  A
C818        C819   1.402       .  A
C818        H823   1.083       .  S
C819        C820   1.410       .  A
C819       Br827   1.918       .  S
C820        C821   1.407   1_565  A
C821        C822   1.397       .  A
C821        H824   1.084       .  S
C822       Br828   1.920       .  S
C829        C830   1.413       .  A
C829        C834   1.401       .  A
C830        C831   1.395       .  A
C830       Br846   1.922       .  S
C831        C832   1.398       .  A
C831        H835   1.084       .  S
C832        C836   1.475       .  S
C832        C833   1.411       .  A
C833        C834   1.401       .  A
C833       Br845   1.919       .  S
C834        H837   1.083       .  S
C836        C838   1.404       .  A
C836        C842   1.405       .  A
C838        C839   1.401       .  A
C838        H843   1.083       .  S
C839        C840   1.408       .  A
C839       Br847   1.919       .  S
C840        C841   1.405       .  A
C841        C842   1.395       .  A
C841        H844   1.083       .  S
C842       Br848   1.919       .  S
C849        C850   1.415       .  A
C849        C854   1.403       .  A
C850        C851   1.396       .  A
C850       Br866   1.923       .  S
C851        C852   1.398       .  A
C851        H855   1.084       .  S
C852        C856   1.473       .  S
C852        C853   1.408       .  A
C853        C854   1.401       .  A
C853       Br865   1.918       .  S
C854        H857   1.083       .  S
C856        C858   1.402       .  A
C856        C862   1.403       .  A
C858        C859   1.401       .  A
C858        H863   1.084       .  S
C859        C860   1.413       .  A
C859       Br867   1.920       .  S
C860        C861   1.408       .  A
C861        C862   1.395       .  A
C861        H864   1.084       .  S
C862       Br868   1.919       .  S
C869        C870   1.409       .  A
C869        C874   1.400       .  A
C870        C871   1.394       .  A
C870       Br886   1.919       .  S
C871        C872   1.399       .  A
C871        H875   1.084       .  S
C872        C876   1.478       .  S
C872        C873   1.413       .  A
C873        C874   1.401       .  A
C873       Br885   1.920       .  S
C874        H877   1.083       .  S
C876        C878   1.403       .  A
C876        C882   1.411       .  A
C878        C879   1.397       .  A
C878        H883   1.083       .  S
C879        C880   1.405       .  A
C879       Br887   1.915       .  S
C880        C881   1.400       .  A
C881        C882   1.397       .  A
C881        H884   1.084       .  S
C882       Br888   1.920       .  S
C889        C890   1.412       .  A
C889        C894   1.407       .  A
C890        C891   1.403       .  A
C890       Br906   1.919       .  S
C891        C892   1.405       .  A
C891        H895   1.083       .  S
C892        C896   1.485       .  S
C892        C893   1.407       .  A
C893        C894   1.399       .  A
C893       Br905   1.919       .  S
C894        H897   1.084       .  S
C896        C898   1.405       .  A
C896        C902   1.404       .  A
C898        C899   1.405       .  A
C898        H903   1.084       .  S
C899        C900   1.418       .  A
C899       Br907   1.920       .  S
C900        C901   1.412       .  A
C901        C902   1.397       .  A
C901        H904   1.083       .  S
C902       Br908   1.920       .  S
C909        C910   1.417       .  A
C909        C914   1.412       .  A
C910        C911   1.405       .  A
C910       Br926   1.920       .  S
C911        C912   1.405       .  A
C911        H915   1.083       .  S
C912        C916   1.483       .  S
C912        C913   1.405       .  A
C913        C914   1.396       .  A
C913       Br925   1.922       .  S
C914        H917   1.083       .  S
C916        C918   1.400       .  A
C916        C922   1.413       .  A
C918        C919   1.396       .  A
C918        H923   1.084       .  S
C919        C920   1.412       .  A
C919       Br927   1.921       .  S
C920        C921   1.402       .  A
C921        C922   1.404       .  A
C921        H924   1.083       .  S
C922       Br928   1.919       .  S
C929        C930   1.419       .  A
C929        C934   1.412   1_655  A
C930        C931   1.407       .  A
C930       Br946   1.920       .  S
C931        C932   1.403       .  A
C931        H935   1.083       .  S
C932        C936   1.483       .  S
C932        C933   1.403   1_655  A
C933        C934   1.397       .  A
C933       Br945   1.920       .  S
C934        H937   1.083       .  S
C936        C938   1.401   1_655  A
C936        C942   1.409       .  A
C938        C939   1.400       .  A
C938        H943   1.084       .  S
C939        C940   1.415   1_455  A
C939       Br947   1.921       .  S
C940        C941   1.405       .  A
C941        C942   1.404       .  A
C941        H944   1.083       .  S
C942       Br948   1.918       .  S
C949        C950   1.414       .  A
C949        C954   1.406       .  A
C950        C951   1.401       .  A
C950       Br966   1.920       .  S
C951        C952   1.402       .  A
C951        H955   1.084       .  S
C952        C956   1.481       .  S
C952        C953   1.407       .  A
C953        C954   1.402       .  A
C953       Br965   1.918   1_655  S
C954        H957   1.083   1_655  S
C956        C958   1.397       .  A
C956        C962   1.408       .  A
C958        C959   1.397       .  A
C958        H963   1.084       .  S
C959        C960   1.420       .  A
C959       Br967   1.922       .  S
C960        C961   1.407       .  A
C961        C962   1.405       .  A
C961        H964   1.083       .  S
C962       Br968   1.917       .  S
C969        C970   1.410       .  A
C969        C974   1.405       .  A
C970        C971   1.403       .  A
C970       Br986   1.918   1_655  S
C971        C972   1.404       .  A
C971        H975   1.083   1_655  S
C972        C976   1.483       .  S
C972        C973   1.408       .  A
C973        C974   1.399       .  A
C973       Br985   1.919       .  S
C974        H977   1.084       .  S
C976        C978   1.399       .  A
C976        C982   1.412       .  A
C978        C979   1.394       .  A
C978        H983   1.084       .  S
C979        C980   1.411       .  A
C979       Br987   1.920       .  S
C980        C981   1.404       .  A
C981        C982   1.407       .  A
C981        H984   1.083   1_655  S
C982       Br988   1.917   1_655  S
C989        C990   1.411       .  A
C989        C994   1.405       .  A
C990        C991   1.398       .  A
C990      Br1006   1.921       .  S
C991        C992   1.401       .  A
C991        H995   1.084       .  S
C992        C996   1.483       .  S
C992        C993   1.411       .  A
C993        C994   1.403       .  A
C993      Br1005   1.919       .  S
C994        H997   1.083       .  S
C996        C998   1.407       .  A
C996       C1002   1.407       .  A
C998        C999   1.404       .  A
C998       H1003   1.083       .  S
C999       C1000   1.408       .  A
C999      Br1007   1.918       .  S
C1000      C1001   1.405       .  A
C1001      C1002   1.397       .  A
C1001      H1004   1.084       .  S
C1002     Br1008   1.920       .  S
C1009      C1010   1.408       .  A
C1009      C1014   1.400       .  A
C1010      C1011   1.396       .  A
C1010     Br1026   1.920       .  S
C1011      C1012   1.400       .  A
C1011      H1015   1.084       .  S
C1012      C1016   1.468       .  S
C1012      C1013   1.408       .  A
C1013      C1014   1.396       .  A
C1013     Br1025   1.919       .  S
C1014      H1017   1.084       .  S
C1016      C1018   1.404       .  A
C1016      C1022   1.401       .  A
C1018      C1019   1.400       .  A
C1018      H1023   1.083       .  S
C1019      C1020   1.408       .  A
C1019     Br1027   1.918       .  S
C1020      C1021   1.408       .  A
C1021      C1022   1.391       .  A
C1021      H1024   1.084       .  S
C1022     Br1028   1.920       .  S
C1029      C1030   1.414       .  A
C1029      C1034   1.407       .  A
C1030      C1031   1.404       .  A
C1030     Br1046   1.919       .  S
C1031      C1032   1.403       .  A
C1031      H1035   1.083       .  S
C1032      C1036   1.484       .  S
C1032      C1033   1.407       .  A
C1033      C1034   1.401       .  A
C1033     Br1045   1.918       .  S
C1034      H1037   1.083       .  S
C1036      C1038   1.404       .  A
C1036      C1042   1.402       .  A
C1038      C1039   1.408       .  A
C1038      H1043   1.083       .  S
C1039      C1040   1.418       .  A
C1039     Br1047   1.919       .  S
C1040      C1041   1.412       .  A
C1041      C1042   1.397       .  A
C1041      H1044   1.083       .  S
C1042     Br1048   1.919       .  S
C1049      C1050   1.412       .  A
C1049      C1054   1.407       .  A
C1050      C1051   1.402       .  A
C1050     Br1066   1.920       .  S
C1051      C1052   1.403       .  A
C1051      H1055   1.084       .  S
C1052      C1056   1.476       .  S
C1052      C1053   1.404       .  A
C1053      C1054   1.396       .  A
C1053     Br1065   1.919       .  S
C1054      H1057   1.084       .  S
C1056      C1058   1.406       .  A
C1056      C1062   1.402       .  A
C1058      C1059   1.406       .  A
C1058      H1063   1.083       .  S
C1059      C1060   1.411       .  A
C1059     Br1067   1.918       .  S
C1060      C1061   1.407       .  A
C1061      C1062   1.392       .  A
C1061      H1064   1.084       .  S
C1062     Br1068   1.920       .  S
C1069      C1070   1.414       .  A
C1069      C1074   1.407       .  A
C1070      C1071   1.402       .  A
C1070     Br1086   1.918       .  S
C1071      C1072   1.402       .  A
C1071      H1075   1.083       .  S
C1072      C1076   1.480       .  S
C1072      C1073   1.407       .  A
C1073      C1074   1.398       .  A
C1073     Br1085   1.920       .  S
C1074      H1077   1.084       .  S
C1076      C1078   1.398       .  A
C1076      C1082   1.410       .  A
C1078      C1079   1.398       .  A
C1078      H1083   1.084       .  S
C1079      C1080   1.418       .  A
C1079     Br1087   1.923       .  S
C1080      C1081   1.405       .  A
C1081      C1082   1.401       .  A
C1081      H1084   1.083       .  S
C1082     Br1088   1.919       .  S
C1089      C1090   1.411       .  A
C1089      C1094   1.405       .  A
C1090      C1091   1.398       .  A
C1090     Br1106   1.920       .  S
C1091      C1092   1.401       .  A
C1091      H1095   1.084       .  S
C1092      C1096   1.481       .  S
C1092      C1093   1.409       .  A
C1093      C1094   1.403       .  A
C1093     Br1105   1.918       .  S
C1094      H1097   1.083       .  S
C1096      C1098   1.398       .  A
C1096      C1102   1.411       .  A
C1098      C1099   1.396       .  A
C1098      H1103   1.084       .  S
C1099      C1100   1.415       .  A
C1099     Br1107   1.922       .  S
C1100      C1101   1.404       .  A
C1101      C1102   1.404       .  A
C1101      H1104   1.083       .  S
C1102     Br1108   1.918       .  S
C1109      C1110   1.405       .  A
C1109      C1114   1.404       .  A
C1110      C1111   1.401       .  A
C1110     Br1126   1.917       .  S
C1111      C1112   1.406       .  A
C1111      H1115   1.083       .  S
C1112      C1116   1.467       .  S
C1112      C1113   1.401       .  A
C1113      C1114   1.390       .  A
C1113     Br1125   1.919       .  S
C1114      H1117   1.081       .  S
C1116      C1118   1.405       .  A
C1116      C1122   1.401       .  A
C1118      C1119   1.400       .  A
C1118      H1123   1.083       .  S
C1119      C1120   1.406       .  A
C1119     Br1127   1.918       .  S
C1120      C1121   1.405       .  A
C1121      C1122   1.391       .  A
C1121      H1124   1.084       .  S
C1122     Br1128   1.919       .  S
C1129      C1130   1.415       .  A
C1129      C1134   1.410       .  A
C1130      C1131   1.403       .  A
C1130     Br1146   1.919       .  S
C1131      C1132   1.403       .  A
C1131      H1135   1.084       .  S
C1132      C1136   1.475       .  S
C1132      C1133   1.402       .  A
C1133      C1134   1.395       .  A
C1133     Br1145   1.920       .  S
C1134      H1137   1.083       .  S
C1136      C1138   1.398       .  A
C1136      C1142   1.407       .  A
C1138      C1139   1.396       .  A
C1138      H1143   1.084       .  S
C1139      C1140   1.415       .  A
C1139     Br1147   1.922       .  S
C1140      C1141   1.405       .  A
C1141      C1142   1.400       .  A
C1141      H1144   1.083       .  S
C1142     Br1148   1.918       .  S
C1149      C1150   1.409       .  A
C1149      C1154   1.402       .  A
C1150      C1151   1.396       .  A
C1150     Br1166   1.919       .  S
C1151      C1152   1.401       .  A
C1151      H1155   1.084       .  S
C1152      C1156   1.474       .  S
C1152      C1153   1.409       .  A
C1153      C1154   1.397       .  A
C1153     Br1165   1.919       .  S
C1154      H1157   1.084       .  S
C1156      C1158   1.405       .  A
C1156      C1162   1.404       .  A
C1158      C1159   1.401       .  A
C1158      H1163   1.083       .  S
C1159      C1160   1.410       .  A
C1159     Br1167   1.919       .  S
C1160      C1161   1.405       .  A
C1161      C1162   1.393       .  A
C1161      H1164   1.084       .  S
C1162     Br1168   1.920       .  S
C1169      C1170   1.415       .  A
C1169      C1174   1.404       .  A
C1170      C1171   1.397       .  A
C1170     Br1186   1.923       .  S
C1171      C1172   1.400       .  A
C1171      H1175   1.084       .  S
C1172      C1176   1.476       .  S
C1172      C1173   1.407       .  A
C1173      C1174   1.400       .  A
C1173     Br1185   1.918       .  S
C1174      H1177   1.083       .  S
C1176      C1178   1.398       .  A
C1176      C1182   1.408       .  A
C1178      C1179   1.397       .  A
C1178      H1183   1.084       .  S
C1179      C1180   1.416       .  A
C1179     Br1187   1.922       .  S
C1180      C1181   1.403       .  A
C1181      C1182   1.400       .  A
C1181      H1184   1.083       .  S
C1182     Br1188   1.918       .  S
C1189      C1190   1.414       .  A
C1189      C1194   1.407       .  A
C1190      C1191   1.403       .  A
C1190     Br1206   1.920   1_545  S
C1191      C1192   1.404       .  A
C1191      H1195   1.083       .  S
C1192      C1196   1.482       .  S
C1192      C1193   1.406       .  A
C1193      C1194   1.398       .  A
C1193     Br1205   1.919       .  S
C1194      H1197   1.084       .  S
C1196      C1198   1.405       .  A
C1196      C1202   1.404       .  A
C1198      C1199   1.405       .  A
C1198      H1203   1.083       .  S
C1199      C1200   1.415       .  A
C1199     Br1207   1.918       .  S
C1200      C1201   1.410       .  A
C1201      C1202   1.397       .  A
C1201      H1204   1.083       .  S
C1202     Br1208   1.920   1_545  S
C1209      C1210   1.408       .  A
C1209      C1214   1.410       .  A
C1210      C1211   1.400       .  A
C1210     Br1226   1.916       .  S
C1211      C1212   1.406       .  A
C1211      H1215   1.084       .  S
C1212      C1216   1.475       .  S
C1212      C1213   1.402       .  A
C1213      C1214   1.393       .  A
C1213     Br1225   1.920       .  S
C1214      H1217   1.083       .  S
C1216      C1218   1.407       .  A
C1216      C1222   1.405       .  A
C1218      C1219   1.401       .  A
C1218      H1223   1.083       .  S
C1219      C1220   1.405       .  A
C1219     Br1227   1.918       .  S
C1220      C1221   1.403       .  A
C1221      C1222   1.393       .  A
C1221      H1224   1.084       .  S
C1222     Br1228   1.920       .  S
C1229      C1230   1.415       .  A
C1229      C1234   1.409       .  A
C1230      C1231   1.405       .  A
C1230     Br1246   1.920       .  S
C1231      C1232   1.404       .  A
C1231      H1235   1.083       .  S
C1232      C1236   1.477       .  S
C1232      C1233   1.401       .  A
C1233      C1234   1.394       .  A
C1233     Br1245   1.919       .  S
C1234      H1237   1.083       .  S
C1236      C1238   1.403       .  A
C1236      C1242   1.406       .  A
C1238      C1239   1.401       .  A
C1238      H1243   1.083       .  S
C1239      C1240   1.410       .  A
C1239     Br1247   1.919       .  S
C1240      C1241   1.405       .  A
C1241      C1242   1.399       .  A
C1241      H1244   1.084       .  S
C1242     Br1248   1.919       .  S
C1249      C1250   1.413       .  A
C1249      C1254   1.405       .  A
C1250      C1251   1.399       .  A
C1250     Br1266   1.921       .  S
C1251      C1252   1.400       .  A
C1251      H1255   1.084       .  S
C1252      C1256   1.479       .  S
C1252      C1253   1.408       .  A
C1253      C1254   1.403       .  A
C1253     Br1265   1.917       .  S
C1254      H1257   1.083       .  S
C1256      C1258   1.404       .  A
C1256      C1262   1.402       .  A
C1258      C1259   1.406       .  A
C1258      H1263   1.083       .  S
C1259      C1260   1.415       .  A
C1259     Br1267   1.918       .  S
C1260      C1261   1.410       .  A
C1261      C1262   1.395       .  A
C1261      H1264   1.083       .  S
C1262     Br1268   1.919       .  S
C1269      C1270   1.407       .  A
C1269      C1274   1.400       .  A
C1270      C1271   1.395       .  A
C1270     Br1286   1.918       .  S
C1271      C1272   1.399       .  A
C1271      H1275   1.084       .  S
C1272      C1276   1.468       .  S
C1272      C1273   1.409       .  A
C1273      C1274   1.397       .  A
C1273     Br1285   1.919       .  S
C1274      H1277   1.084       .  S
C1276      C1278   1.405       .  A
C1276      C1282   1.401       .  A
C1278      C1279   1.402       .  A
C1278      H1283   1.083       .  S
C1279      C1280   1.407       .  A
C1279     Br1287   1.918       .  S
C1280      C1281   1.406       .  A
C1281      C1282   1.390       .  A
C1281      H1284   1.082       .  S
C1282     Br1288   1.920       .  S
C1289      C1290   1.417       .  A
C1289      C1294   1.405       .  A
C1290      C1291   1.396       .  A
C1290     Br1306   1.923       .  S
C1291      C1292   1.398       .  A
C1291      H1295   1.084       .  S
C1292      C1296   1.474       .  S
C1292      C1293   1.407       .  A
C1293      C1294   1.400       .  A
C1293     Br1305   1.918       .  S
C1294      H1297   1.083   1_545  S
C1296      C1298   1.404       .  A
C1296      C1302   1.403       .  A
C1298      C1299   1.403       .  A
C1298      H1303   1.083       .  S
C1299      C1300   1.411       .  A
C1299     Br1307   1.919       .  S
C1300      C1301   1.406       .  A
C1301      C1302   1.393       .  A
C1301      H1304   1.084       .  S
C1302     Br1308   1.920       .  S
C1309      C1310   1.412       .  A
C1309      C1314   1.409   1_565  A
C1310      C1311   1.406       .  A
C1310     Br1326   1.918       .  S
C1311      C1312   1.407       .  A
C1311      H1315   1.083       .  S
C1312      C1316   1.482       .  S
C1312      C1313   1.403   1_565  A
C1313      C1314   1.393       .  A
C1313     Br1325   1.920       .  S
C1314      H1317   1.083       .  S
C1316      C1318   1.404       .  A
C1316      C1322   1.406       .  A
C1318      C1319   1.401       .  A
C1318      H1323   1.084       .  S
C1319      C1320   1.412       .  A
C1319     Br1327   1.918       .  S
C1320      C1321   1.408       .  A
C1321      C1322   1.399       .  A
C1321      H1324   1.084       .  S
C1322     Br1328   1.919       .  S
C1329      C1330   1.413       .  A
C1329      C1334   1.409       .  A
C1330      C1331   1.409       .  A
C1330     Br1346   1.918       .  S
C1331      C1332   1.407       .  A
C1331      H1335   1.083       .  S
C1332      C1336   1.488       .  S
C1332      C1333   1.406       .  A
C1333      C1334   1.398       .  A
C1333     Br1345   1.919       .  S
C1334      H1337   1.083       .  S
C1336      C1338   1.401       .  A
C1336      C1342   1.410       .  A
C1338      C1339   1.402       .  A
C1338      H1343   1.084       .  S
C1339      C1340   1.416       .  A
C1339     Br1347   1.921       .  S
C1340      C1341   1.408       .  A
C1341      C1342   1.405       .  A
C1341      H1344   1.083       .  S
C1342     Br1348   1.918       .  S
C1349      C1350   1.411       .  A
C1349      C1354   1.405       .  A
C1350      C1351   1.400       .  A
C1350     Br1366   1.920       .  S
C1351      C1352   1.404       .  A
C1351      H1355   1.084       .  S
C1352      C1356   1.491       .  S
C1352      C1353   1.413       .  A
C1353      C1354   1.406       .  A
C1353     Br1365   1.919       .  S
C1354      H1357   1.083       .  S
C1356      C1358   1.400       .  A
C1356      C1362   1.411       .  A
C1358      C1359   1.399       .  A
C1358      H1363   1.084       .  S
C1359      C1360   1.420       .  A
C1359     Br1367   1.924       .  S
C1360      C1361   1.409       .  A
C1361      C1362   1.406       .  A
C1361      H1364   1.083       .  S
C1362     Br1368   1.919       .  S
C1369      C1370   1.417       .  A
C1369      C1374   1.411       .  A
C1370      C1371   1.405       .  A
C1370     Br1386   1.920       .  S
C1371      C1372   1.404       .  A
C1371      H1375   1.083       .  S
C1372      C1376   1.485       .  S
C1372      C1373   1.405       .  A
C1373      C1374   1.398       .  A
C1373     Br1385   1.920       .  S
C1374      H1377   1.083       .  S
C1376      C1378   1.404       .  A
C1376      C1382   1.411       .  A
C1378      C1379   1.401       .  A
C1378      H1383   1.084       .  S
C1379      C1380   1.410       .  A
C1379     Br1387   1.919       .  S
C1380      C1381   1.403       .  A
C1381      C1382   1.401       .  A
C1381      H1384   1.084       .  S
C1382     Br1388   1.919       .  S
C1389      C1390   1.414       .  A
C1389      C1394   1.406       .  A
C1390      C1391   1.402       .  A
C1390     Br1406   1.920       .  S
C1391      C1392   1.402       .  A
C1391      H1395   1.084       .  S
C1392      C1396   1.488       .  S
C1392      C1393   1.410       .  A
C1393      C1394   1.406       .  A
C1393     Br1405   1.917       .  S
C1394      H1397   1.083       .  S
C1396      C1398   1.405       .  A
C1396      C1402   1.405       .  A
C1398      C1399   1.408       .  A
C1398      H1403   1.083       .  S
C1399      C1400   1.415       .  A
C1399     Br1407   1.918       .  S
C1400      C1401   1.412       .  A
C1401      C1402   1.400       .  A
C1401      H1404   1.083       .  S
C1402     Br1408   1.919       .  S
C1409      C1410   1.406       .  A
C1409      C1414   1.399       .  A
C1410      C1411   1.398       .  A
C1410     Br1426   1.919       .  S
C1411      C1412   1.402       .  A
C1411      H1415   1.083       .  S
C1412      C1416   1.464       .  S
C1412      C1413   1.405       .  A
C1413      C1414   1.391       .  A
C1413     Br1425   1.919       .  S
C1414      H1417   1.084       .  S
C1416      C1418   1.402       .  A
C1416      C1422   1.399       .  A
C1418      C1419   1.398       .  A
C1418      H1423   1.084       .  S
C1419      C1420   1.412       .  A
C1419     Br1427   1.920       .  S
C1420      C1421   1.410       .  A
C1421      C1422   1.392       .  A
C1421      H1424   1.083       .  S
C1422     Br1428   1.920       .  S
C1429      C1430   1.413       .  A
C1429      C1434   1.410       .  A
C1430      C1431   1.404       .  A
C1430     Br1446   1.918       .  S
C1431      C1432   1.404       .  A
C1431      H1435   1.083       .  S
C1432      C1436   1.478       .  S
C1432      C1433   1.402       .  A
C1433      C1434   1.395       .  A
C1433     Br1445   1.919   1_545  S
C1434      H1437   1.083       .  S
C1436      C1438   1.403   1_545  A
C1436      C1442   1.404       .  A
C1438      C1439   1.403       .  A
C1438      H1443   1.083       .  S
C1439      C1440   1.414       .  A
C1439     Br1447   1.920       .  S
C1440      C1441   1.407       .  A
C1441      C1442   1.397   1_565  A
C1441      H1444   1.084   1_565  S
C1442     Br1448   1.919       .  S
C1449      C1450   1.410       .  A
C1449      C1454   1.407       .  A
C1450      C1451   1.401       .  A
C1450     Br1466   1.919       .  S
C1451      C1452   1.403       .  A
C1451      H1455   1.083       .  S
C1452      C1456   1.474       .  S
C1452      C1453   1.403       .  A
C1453      C1454   1.396       .  A
C1453     Br1465   1.919       .  S
C1454      H1457   1.084       .  S
C1456      C1458   1.403       .  A
C1456      C1462   1.400       .  A
C1458      C1459   1.404       .  A
C1458      H1463   1.084       .  S
C1459      C1460   1.417       .  A
C1459     Br1467   1.920       .  S
C1460      C1461   1.411       .  A
C1461      C1462   1.393       .  A
C1461      H1464   1.083       .  S
C1462     Br1468   1.919       .  S
C1469      C1470   1.413       .  A
C1469      C1474   1.409       .  A
C1470      C1471   1.405       .  A
C1470     Br1486   1.918       .  S
C1471      C1472   1.406       .  A
C1471      H1475   1.083       .  S
C1472      C1476   1.483       .  S
C1472      C1473   1.404       .  A
C1473      C1474   1.396       .  A
C1473     Br1485   1.920       .  S
C1474      H1477   1.083       .  S
C1476      C1478   1.408       .  A
C1476      C1482   1.405       .  A
C1478      C1479   1.405       .  A
C1478      H1483   1.083       .  S
C1479      C1480   1.408       .  A
C1479     Br1487   1.918       .  S
C1480      C1481   1.407       .  A
C1481      C1482   1.396       .  A
C1481      H1484   1.084       .  S
C1482     Br1488   1.919       .  S
C1489      C1490   1.410   1_655  A
C1489      C1494   1.406       .  A
C1490      C1491   1.400       .  A
C1490     Br1506   1.919       .  S
C1491      C1492   1.402   1_455  A
C1491      H1495   1.084       .  S
C1492      C1496   1.482       .  S
C1492      C1493   1.408       .  A
C1493      C1494   1.404       .  A
C1493     Br1505   1.917       .  S
C1494      H1497   1.083       .  S
C1496      C1498   1.405       .  A
C1496      C1502   1.402       .  A
C1498      C1499   1.408       .  A
C1498      H1503   1.083       .  S
C1499      C1500   1.416       .  A
C1499     Br1507   1.919       .  S
C1500      C1501   1.410       .  A
C1501      C1502   1.395       .  A
C1501      H1504   1.083       .  S
C1502     Br1508   1.919       .  S
C1509      C1510   1.412       .  A
C1509      C1514   1.407       .  A
C1510      C1511   1.400       .  A
C1510     Br1526   1.920       .  S
C1511      C1512   1.402       .  A
C1511      H1515   1.084       .  S
C1512      C1516   1.470       .  S
C1512      C1513   1.402       .  A
C1513      C1514   1.394       .  A
C1513     Br1525   1.918       .  S
C1514      H1517   1.084       .  S
C1516      C1518   1.399       .  A
C1516      C1522   1.406       .  A
C1518      C1519   1.395       .  A
C1518      H1523   1.084       .  S
C1519      C1520   1.411       .  A
C1519     Br1527   1.921       .  S
C1520      C1521   1.403       .  A
C1521      C1522   1.399       .  A
C1521      H1524   1.082       .  S
C1522     Br1528   1.918       .  S
C1529      C1530   1.417       .  A
C1529      C1534   1.409       .  A
C1530      C1531   1.397       .  A
C1530     Br1546   1.923       .  S
C1531      C1532   1.400       .  A
C1531      H1535   1.084       .  S
C1532      C1536   1.489       .  S
C1532      C1533   1.411       .  A
C1533      C1534   1.407       .  A
C1533     Br1545   1.919   1_655  S
C1534      H1537   1.083       .  S
C1536      C1538   1.400       .  A
C1536      C1542   1.412       .  A
C1538      C1539   1.397       .  A
C1538      H1543   1.084       .  S
C1539      C1540   1.417       .  A
C1539     Br1547   1.923       .  S
C1540      C1541   1.408       .  A
C1541      C1542   1.407       .  A
C1541      H1544   1.083   1_655  S
C1542     Br1548   1.918   1_655  S
C1549      C1550   1.408       .  A
C1549      C1554   1.405       .  A
C1550      C1551   1.403       .  A
C1550     Br1566   1.918       .  S
C1551      C1552   1.406       .  A
C1551      H1555   1.083       .  S
C1552      C1556   1.472       .  S
C1552      C1553   1.402       .  A
C1553      C1554   1.392       .  A
C1553     Br1565   1.919       .  S
C1554      H1557   1.084       .  S
C1556      C1558   1.404       .  A
C1556      C1562   1.405       .  A
C1558      C1559   1.400       .  A
C1558      H1563   1.083       .  S
C1559      C1560   1.405       .  A
C1559     Br1567   1.919       .  S
C1560      C1561   1.403       .  A
C1561      C1562   1.395       .  A
C1561      H1564   1.084       .  S
C1562     Br1568   1.919       .  S
C1569      C1570   1.415   1_655  A
C1569      C1574   1.404       .  A
C1570      C1571   1.397       .  A
C1570     Br1586   1.922       .  S
C1571      C1572   1.398   1_455  A
C1571      H1575   1.084       .  S
C1572      C1576   1.482       .  S
C1572      C1573   1.412       .  A
C1573      C1574   1.405       .  A
C1573     Br1585   1.918       .  S
C1574      H1577   1.083       .  S
C1576      C1578   1.403   1_655  A
C1576      C1582   1.409       .  A
C1578      C1579   1.401       .  A
C1578      H1583   1.084       .  S
C1579      C1580   1.409   1_455  A
C1579     Br1587   1.916       .  S
C1580      C1581   1.402       .  A
C1581      C1582   1.401       .  A
C1581      H1584   1.084       .  S
C1582     Br1588   1.918       .  S
C1589      C1590   1.417       .  A
C1589      C1594   1.413       .  A
C1590      C1591   1.407       .  A
C1590     Br1606   1.919       .  S
C1591      C1592   1.404       .  A
C1591      H1595   1.083       .  S
C1592      C1596   1.478       .  S
C1592      C1593   1.401       .  A
C1593      C1594   1.394       .  A
C1593     Br1605   1.920       .  S
C1594      H1597   1.083       .  S
C1596      C1598   1.398       .  A
C1596      C1602   1.408       .  A
C1598      C1599   1.396       .  A
C1598      H1603   1.084       .  S
C1599      C1600   1.416       .  A
C1599     Br1607   1.923       .  S
C1600      C1601   1.405       .  A
C1601      C1602   1.404       .  A
C1601      H1604   1.083       .  S
C1602     Br1608   1.917       .  S
C1609      C1610   1.407       .  A
C1609      C1614   1.401       .  A
C1610      C1611   1.396       .  A
C1610     Br1626   1.918       .  S
C1611      C1612   1.400       .  A
C1611      H1615   1.084       .  S
C1612      C1616   1.469       .  S
C1612      C1613   1.407       .  A
C1613      C1614   1.397       .  A
C1613     Br1625   1.919       .  S
C1614      H1617   1.084       .  S
C1616      C1618   1.404       .  A
C1616      C1622   1.401       .  A
C1618      C1619   1.401       .  A
C1618      H1623   1.083       .  S
C1619      C1620   1.409       .  A
C1619     Br1627   1.919       .  S
C1620      C1621   1.406       .  A
C1621      C1622   1.392       .  A
C1621      H1624   1.084       .  S
C1622     Br1628   1.919       .  S
C1629      C1630   1.413   1_565  A
C1629      C1634   1.404       .  A
C1630      C1631   1.396       .  A
C1630     Br1646   1.922       .  S
C1631      C1632   1.401       .  A
C1631      H1635   1.084       .  S
C1632      C1636   1.481       .  S
C1632      C1633   1.410       .  A
C1633      C1634   1.401   1_545  A
C1633     Br1645   1.919       .  S
C1634      H1637   1.084       .  S
C1636      C1638   1.405       .  A
C1636      C1642   1.407       .  A
C1638      C1639   1.403       .  A
C1638      H1643   1.083       .  S
C1639      C1640   1.412       .  A
C1639     Br1647   1.920       .  S
C1640      C1641   1.404       .  A
C1641      C1642   1.395       .  A
C1641      H1644   1.084       .  S
C1642     Br1648   1.920       .  S
C1649      C1650   1.413       .  A
C1649      C1654   1.406       .  A
C1650      C1651   1.402       .  A
C1650     Br1666   1.920       .  S
C1651      C1652   1.403       .  A
C1651      H1655   1.084       .  S
C1652      C1656   1.489       .  S
C1652      C1653   1.410       .  A
C1653      C1654   1.405       .  A
C1653     Br1665   1.919       .  S
C1654      H1657   1.081       .  S
C1656      C1658   1.398       .  A
C1656      C1662   1.410       .  A
C1658      C1659   1.399       .  A
C1658      H1663   1.084       .  S
C1659      C1660   1.423       .  A
C1659     Br1667   1.924       .  S
C1660      C1661   1.409       .  A
C1661      C1662   1.406       .  A
C1661      H1664   1.083   1_545  S
C1662     Br1668   1.918       .  S
C1669      C1670   1.405       .  A
C1669      C1674   1.404   1_545  A
C1670      C1671   1.400       .  A
C1670     Br1686   1.917       .  S
C1671      C1672   1.405       .  A
C1671      H1675   1.083       .  S
C1672      C1676   1.467       .  S
C1672      C1673   1.402   1_545  A
C1673      C1674   1.392       .  A
C1673     Br1685   1.918       .  S
C1674      H1677   1.084       .  S
C1676      C1678   1.404       .  A
C1676      C1682   1.403       .  A
C1678      C1679   1.400       .  A
C1678      H1683   1.083   1_545  S
C1679      C1680   1.406       .  A
C1679     Br1687   1.919   1_545  S
C1680      C1681   1.403       .  A
C1681      C1682   1.392       .  A
C1681      H1684   1.084       .  S
C1682     Br1688   1.919       .  S
C1689      C1690   1.417       .  A
C1689      C1694   1.405       .  A
C1690      C1691   1.395       .  A
C1690     Br1706   1.923       .  S
C1691      C1692   1.398       .  A
C1691      H1695   1.084       .  S
C1692      C1696   1.479       .  S
C1692      C1693   1.410       .  A
C1693      C1694   1.403       .  A
C1693     Br1705   1.918       .  S
C1694      H1697   1.083       .  S
C1696      C1698   1.403       .  A
C1696      C1702   1.409       .  A
C1698      C1699   1.399       .  A
C1698      H1703   1.083       .  S
C1699      C1700   1.408       .  A
C1699     Br1707   1.919       .  S
C1700      C1701   1.402       .  A
C1701      C1702   1.400       .  A
C1701      H1704   1.084       .  S
C1702     Br1708   1.919       .  S
C1709      C1710   1.407       .  A
C1709      C1714   1.404       .  A
C1710      C1711   1.404       .  A
C1710     Br1726   1.916       .  S
C1711      C1712   1.405       .  A
C1711      H1715   1.083       .  S
C1712      C1716   1.478       .  S
C1712      C1713   1.405       .  A
C1713      C1714   1.396       .  A
C1713     Br1725   1.919       .  S
C1714      H1717   1.084       .  S
C1716      C1718   1.404       .  A
C1716      C1722   1.400       .  A
C1718      C1719   1.405       .  A
C1718      H1723   1.083       .  S
C1719      C1720   1.416       .  A
C1719     Br1727   1.920       .  S
C1720      C1721   1.412       .  A
C1721      C1722   1.395       .  A
C1721      H1724   1.083       .  S
C1722     Br1728   1.919       .  S
