geometry optimzed in LAMMPS
_audit_creation_date              2020-12-01 
_audit_creation_method            'lammps2cif' 
_symmetry_space_group_name_H-M    'P1' 
_symmetry_Int_Tables_number       1 
_symmetry_cell_setting            triclinic 
loop_ 
_symmetry_equiv_pos_as_xyz 
  x,y,z 
_cell_length_a                    44.57395038 
_cell_length_b                    29.165072350360884 
_cell_length_c                    55.62325741171215 
_cell_angle_alpha                 89.8137908619591 
_cell_angle_beta                  89.77385508994779 
_cell_angle_gamma                 90.2454883640252 
loop_ 
_atom_site_label 
_atom_site_type_symbol 
_atom_site_fract_x 
_atom_site_fract_y 
_atom_site_fract_z 
_atom_site_charge 
O1          O  0.71257091  0.29315506  0.64215010    -0.82300
C2          C  0.64658449  0.42366419  0.59035183     0.97100
O3          O  0.63821142  0.38241450  0.59334076    -0.71400
O4          O  0.68257277  0.33088593  0.58024982    -0.75000
Al5        Al  0.65873898  0.33180931  0.60825234     1.49000
C6          C  0.70918596  0.31712309  0.57927501     0.92400
O7          O  0.73795766  0.40603049  0.61399125    -0.81200
O8          O  0.68172767  0.39978275  0.66957377    -0.74700
Al9        Al  0.72259764  0.35017680  0.62780652     1.90100
O10         O  0.70877957  0.45109934  0.63504753    -0.73800
O11         O  0.63102465  0.40071944  0.64248111    -0.73700
O12         O  0.66250594  0.44314216  0.60616402    -0.79300
O13         O  0.63082484  0.32772724  0.63414120    -0.77500
O14         O  0.68444689  0.36674008  0.62453757    -1.13700
O15         O  0.67487862  0.27440335  0.61899100    -0.72900
C16         C  0.69554862  0.26301415  0.63328986     0.97900
C17         C  0.73245026  0.44463526  0.62322613     0.94300
Al18       Al  0.67184730  0.41926108  0.63733477     1.55600
O19         O  0.72641512  0.32145027  0.59707707    -0.77500
C20         C  0.61755127  0.36259448  0.64202973     0.98400
C21         C  0.70806339  0.38717668  0.67534430     0.93300
O22         O  0.72635770  0.37353386  0.65949056    -0.82800
O23         O  0.79525100  0.14625725  0.35163331    -0.82300
C24         C  0.86540086  0.07868489  0.42789992     0.97100
O25         O  0.86646211  0.06321319  0.40665882    -0.71400
O26         O  0.81354138  0.04012104  0.39172509    -0.75000
Al27       Al  0.84314768  0.07887789  0.37848413     1.49000
C28         C  0.78582481  0.04251085  0.38793528     0.92400
O29         O  0.77816250  0.14075483  0.41838617    -0.81200
O30         O  0.84215478  0.21892964  0.38976513    -0.74700
Al31       Al  0.78861239  0.14292778  0.38510710     1.90100
O32         O  0.81628164  0.18252190  0.43032041    -0.73800
O33         O  0.88575305  0.15725822  0.39319844    -0.73700
O34         O  0.85639674  0.11890284  0.43163864    -0.79300
O35         O  0.87576082  0.11070930  0.36362520    -0.77500
O36         O  0.82689866  0.12944397  0.39086168    -1.13700
O37         O  0.82190702  0.08314786  0.34816599    -0.72900
C38         C  0.80489671  0.11339713  0.33915729     0.97900
C39         C  0.79091501  0.16457158  0.43432866     0.94300
Al40       Al  0.84850830  0.16626248  0.40952910     1.55600
O41         O  0.77424412  0.08064071  0.38267642    -0.77500
C42         C  0.89380496  0.13722108  0.37415801     0.98400
C43         C  0.81632356  0.23487261  0.38575927     0.93300
O44         O  0.79372407  0.20845291  0.38589032    -0.82800
O45         O  0.29863768  0.36579030  0.66390076    -0.82300
C46         C  0.35826827  0.41510444  0.57829579     0.97100
O47         O  0.36256596  0.43525803  0.59823063    -0.71400
O48         O  0.31136129  0.46157406  0.61593344    -0.75000
Al49       Al  0.34261065  0.42659002  0.62920194     1.49000
C50         C  0.28397077  0.45942970  0.62128456     0.92400
O51         O  0.27407911  0.35299675  0.59917950    -0.81200
O52         O  0.34311117  0.28635748  0.62752763    -0.74700
Al53       Al  0.28834515  0.36037159  0.63123913     1.90100
O54         O  0.31141013  0.30917035  0.58781836    -0.73800
O55         O  0.38441590  0.34777064  0.61528097    -0.73700
O56         O  0.34871590  0.37450017  0.57803682    -0.79300
O57         O  0.37678152  0.39816993  0.64349493    -0.77500
O58         O  0.32549945  0.37340313  0.62154115    -1.13700
O59         O  0.32480552  0.42972968  0.66124578    -0.72900
C60         C  0.30909497  0.40153884  0.67343027     0.97900
C61         C  0.28492569  0.32316794  0.58526511     0.94300
Al62       Al  0.34542870  0.33306382  0.60370706     1.55600
O63         O  0.27319236  0.42282023  0.63014097    -0.77500
C64         C  0.39391733  0.37017559  0.63305385     0.98400
C65         C  0.31804161  0.26983167  0.63390298     0.93300
O66         O  0.29499508  0.29519303  0.63449043    -0.82800
O67         O  0.20947174  0.21665239  0.37375146    -0.82300
C68         C  0.14428820  0.07863306  0.42155145     0.97100
O69         O  0.13434303  0.11870374  0.41796883    -0.71400
O70         O  0.17696209  0.17238006  0.43294785    -0.75000
Al71       Al  0.15453247  0.17140982  0.40438910     1.49000
C72         C  0.20419737  0.18260988  0.43560288     0.92400
O73         O  0.23645198  0.10251260  0.39832523    -0.81200
O74         O  0.18150464  0.10731751  0.34299486    -0.74700
Al75       Al  0.21977978  0.15824573  0.38610851     1.90100
O76         O  0.20858980  0.05601343  0.37725558    -0.73800
O77         O  0.13002107  0.10173436  0.36889019    -0.73700
O78         O  0.16134891  0.06047492  0.40597634    -0.79300
O79         O  0.12794255  0.17451741  0.37760163    -0.77500
O80         O  0.18192257  0.13897301  0.38834788    -1.13700
O81         O  0.16972377  0.23103540  0.39546140    -0.72900
C82         C  0.19145234  0.24505976  0.38271208     0.97900
C83         C  0.23189750  0.06373188  0.38915988     0.94300
Al84       Al  0.17109559  0.08590779  0.37488793     1.55600
O85         O  0.22208743  0.18151016  0.41799373    -0.77500
C86         C  0.11609474  0.13931314  0.36845015     0.98400
C87         C  0.20700316  0.12426571  0.33743292     0.93300
O88         O  0.22438300  0.13931023  0.35358586    -0.82800
O89         O  0.21276242  0.80499670  0.63291540    -0.82300
C90         C  0.14399298  0.94008269  0.58818407     0.97100
O91         O  0.13433662  0.89961509  0.59155976    -0.71400
O92         O  0.17787870  0.85007237  0.57549473    -0.75000
Al93       Al  0.15579108  0.84763684  0.60415664     1.49000
C94         C  0.20532824  0.84290667  0.57207623     0.92400
O95         O  0.23575703  0.92344894  0.61070336    -0.81200
O96         O  0.18018023  0.90925400  0.66606769    -0.74700
Al97       Al  0.22083990  0.86531209  0.62187812     1.90100
O98         O  0.20731919  0.96508528  0.63375399    -0.73800
O99         O  0.12889923  0.91358159  0.63978948    -0.73700
O100        O  0.16072010  0.95872263  0.60384894    -0.79300
O101        O  0.12921398  0.84090520  0.63107856    -0.77500
O102        O  0.18240139  0.88118256  0.62038948    -1.13700
O103        O  0.17264557  0.78908007  0.61211537    -0.72900
C104        C  0.19507421  0.77587785  0.62403833     0.97900
C105        C  0.23104943  0.96026222  0.62176603     0.94300
Al106      Al  0.17009690  0.93242146  0.63468809     1.55600
O107        O  0.22368961  0.84501750  0.58928694    -0.77500
C108        C  0.11566779  0.87516113  0.63959321     0.98400
C109        C  0.20611269  0.89412270  0.67142476     0.93300
O110        O  0.22444618  0.88208965  0.65508929    -0.82800
O111        O  0.29270673  0.66074636  0.34419399    -0.82300
C112        C  0.35412831  0.60192057  0.42611985     0.97100
O113        O  0.35865724  0.58457297  0.40549854    -0.71400
O114        O  0.30731382  0.55966774  0.38761739    -0.75000
Al115      Al  0.33848134  0.59708824  0.37523480     1.49000
C116        C  0.27957095  0.56298415  0.38401511     0.92400
O117        O  0.27067235  0.66843336  0.40967476    -0.81200
O118        O  0.33978434  0.73613381  0.38141948    -0.74700
Al119      Al  0.28403672  0.66321810  0.37710359     1.90100
O120        O  0.30871812  0.71056231  0.42099947    -0.73800
O121        O  0.38063816  0.67330522  0.39158510    -0.73700
O122        O  0.34509322  0.64257353  0.42802474    -0.79300
O123        O  0.37309763  0.62736153  0.36146006    -0.77500
O124        O  0.32150171  0.64907778  0.38522207    -1.13700
O125        O  0.32028695  0.59840324  0.34353825    -0.72900
C126        C  0.30389713  0.62759870  0.33297108     0.97900
C127        C  0.28178147  0.69827482  0.42342624     0.94300
Al128      Al  0.34203064  0.68715919  0.40390490     1.55600
O129        O  0.26860180  0.60092542  0.37741808    -0.77500
C130        C  0.39042636  0.65335588  0.37316623     0.98400
C131        C  0.31479683  0.75327846  0.37560108     0.93300
O132        O  0.29136882  0.72845899  0.37489676    -0.82800
O133        O  0.79429468  0.85114668  0.66814805    -0.82300
C134        C  0.85540117  0.90433551  0.58367424     0.97100
O135        O  0.86009016  0.92288661  0.60399172    -0.71400
O136        O  0.80874477  0.94951943  0.62186143    -0.75000
Al137      Al  0.83948655  0.91296020  0.63477585     1.49000
C138        C  0.78129971  0.94738637  0.62705898     0.92400
O139        O  0.77008560  0.84314235  0.60325950    -0.81200
O140        O  0.83865611  0.77380775  0.63070773    -0.74700
Al141      Al  0.78439526  0.84809811  0.63539658     1.90100
O142        O  0.80663762  0.79858806  0.59126442    -0.73800
O143        O  0.88079572  0.83522709  0.61908402    -0.73700
O144        O  0.84445388  0.86457049  0.58241957    -0.79300
O145        O  0.87345874  0.88277864  0.64870114    -0.77500
O146        O  0.82175098  0.86088236  0.62605300    -1.13700
O147        O  0.82101794  0.91460042  0.66689102    -0.72900
C148        C  0.80449450  0.88627836  0.67837649     0.97900
C149        C  0.78011577  0.81298618  0.58921677     0.94300
Al150      Al  0.84120743  0.82146447  0.60745087     1.55600
O151        O  0.77011526  0.91053190  0.63519358    -0.77500
C152        C  0.89070623  0.85629649  0.63722415     0.98400
C153        C  0.81352547  0.75757705  0.63721813     0.93300
O154        O  0.79049321  0.78290665  0.63777869    -0.82800
O155        O  0.71033450  0.70155093  0.38121160    -0.82300
C156        C  0.64076746  0.56643432  0.42464240     0.97100
O157        O  0.63104929  0.60702103  0.42220091    -0.71400
O158        O  0.67439611  0.65663022  0.43863770    -0.75000
Al159      Al  0.65276034  0.65956592  0.40995474     1.49000
C160        C  0.70168310  0.66481082  0.44204202     0.92400
O161        O  0.73139355  0.58250757  0.40337891    -0.81200
O162        O  0.67795861  0.60146574  0.34705087    -0.74700
Al163      Al  0.71783927  0.64152132  0.39238090     1.90100
O164        O  0.70319521  0.54310743  0.37896024    -0.73800
O165        O  0.62581092  0.59616310  0.37265056    -0.73700
O166        O  0.65634898  0.54865601  0.40802214    -0.79300
O167        O  0.62678472  0.66772526  0.38327099    -0.77500
O168        O  0.67919885  0.62642428  0.39335232    -1.13700
O169        O  0.66992077  0.71799394  0.40196281    -0.72900
C170        C  0.69202970  0.73051456  0.38924484     0.97900
C171        C  0.72645193  0.54645277  0.39154665     0.94300
Al172      Al  0.66658079  0.57649129  0.37794358     1.55600
O173        O  0.72031513  0.66226849  0.42493653    -0.77500
C174        C  0.61335623  0.63492860  0.37329045     0.98400
C175        C  0.70460081  0.61512464  0.34249587     0.93300
O176        O  0.72243764  0.62520033  0.35941501    -0.82800
O177        O  0.79344977  0.30557593  0.87864139    -0.82300
C178        C  0.86089781  0.44000721  0.92438114     0.97100
O179        O  0.87006569  0.39900256  0.92193472    -0.71400
O180        O  0.82752763  0.34295533  0.93530423    -0.75000
Al181      Al  0.85087762  0.34672417  0.90703364     1.49000
C182        C  0.79968194  0.33895336  0.93846410     0.92400
O183        O  0.77108710  0.42433983  0.89963571    -0.81200
O184        O  0.82808694  0.41034968  0.84540497    -0.74700
Al185      Al  0.78593786  0.36592593  0.88905090     1.90100
O186        O  0.80029251  0.46530783  0.87675335    -0.73800
O187        O  0.87826312  0.41702172  0.87282426    -0.73700
O188        O  0.84540077  0.45871994  0.90794938    -0.79300
O189        O  0.87918396  0.34425436  0.88101064    -0.77500
O190        O  0.82452077  0.38122782  0.89098150    -1.13700
O191        O  0.83564261  0.28849712  0.89633425    -0.72900
C192        C  0.81227091  0.27614353  0.88525541     0.97900
C193        C  0.77619342  0.46077898  0.88817572     0.94300
Al194      Al  0.83713233  0.43321700  0.87700623     1.55600
O195        O  0.78190506  0.34602709  0.92135705    -0.77500
C196        C  0.89206882  0.37955015  0.87287411     0.98400
C197        C  0.80226773  0.39470482  0.83982174     0.93300
O198        O  0.78355601  0.38226818  0.85585761    -0.82800
O199        O  0.71226691  0.15197054  0.16952718    -0.82300
C200        C  0.64655734  0.09996269  0.08780137     0.97100
O201        O  0.64427323  0.07976673  0.10800544    -0.71400
O202        O  0.69589742  0.05416114  0.12524518    -0.75000
Al203      Al  0.66472792  0.09043757  0.13826740     1.49000
C204        C  0.72371578  0.05787326  0.12840515     0.92400
O205        O  0.73063827  0.16462398  0.10299892    -0.81200
O206        O  0.66381512  0.23012959  0.13551152    -0.74700
Al207      Al  0.71926110  0.15730981  0.13617124     1.90100
O208        O  0.69238381  0.20814012  0.09400961    -0.73800
O209        O  0.62194822  0.16880262  0.12492932    -0.73700
O210        O  0.65511460  0.14120123  0.08663937    -0.79300
O211        O  0.63009799  0.11821224  0.15287304    -0.77500
O212        O  0.68129656  0.14349255  0.12896906    -1.13700
O213        O  0.68322027  0.09060220  0.16972029    -0.72900
C214        C  0.70050489  0.11843228  0.18044624     0.97900
C215        C  0.71849677  0.19429318  0.08961626     0.94300
Al216      Al  0.65998486  0.18340224  0.11184887     1.55600
O217        O  0.73482232  0.09577729  0.13478121    -0.77500
C218        C  0.61258053  0.14578978  0.14257065     0.98400
C219        C  0.68919389  0.24694227  0.14065699     0.93300
O220        O  0.71245367  0.22214208  0.13962296    -0.82800
O221        O  0.21278906  0.37400905  0.84195687    -0.82300
C222        C  0.14749314  0.42764773  0.92377498     0.97100
O223        O  0.14436321  0.44625726  0.90326776    -0.71400
O224        O  0.19670534  0.47223758  0.88691406    -0.75000
Al225      Al  0.16607933  0.43574889  0.87337276     1.49000
C226        C  0.22452409  0.46919880  0.88334007     0.92400
O227        O  0.23262053  0.36367836  0.90811463    -0.81200
O228        O  0.16492049  0.29614405  0.87814583    -0.74700
Al229      Al  0.22041838  0.36971686  0.87522814     1.90100
O230        O  0.19443129  0.32065521  0.91877064    -0.73800
O231        O  0.12345790  0.35779416  0.88768731    -0.73700
O232        O  0.15710494  0.38723294  0.92540250    -0.79300
O233        O  0.13237981  0.40610872  0.85848623    -0.77500
O234        O  0.18269333  0.38321886  0.88296666    -1.13700
O235        O  0.18565562  0.43685022  0.84204678    -0.72900
C236        C  0.20232291  0.40843774  0.83118207     0.97900
C237        C  0.22083403  0.33463276  0.92215776     0.94300
Al238      Al  0.16159955  0.34400650  0.90091949     1.55600
O239        O  0.23563215  0.43174315  0.87631106    -0.77500
C240        C  0.11479966  0.37856416  0.86911102     0.98400
C241        C  0.19004793  0.27958361  0.87232350     0.93300
O242        O  0.21344607  0.30450965  0.87235496    -0.82800
O243        O  0.29235159  0.21810060  0.13268393    -0.82300
C244        C  0.35915876  0.08369390  0.08683575     0.97100
O245        O  0.36940697  0.12377766  0.09041007    -0.71400
O246        O  0.32747770  0.17853109  0.07559411    -0.75000
Al247      Al  0.34951946  0.17587183  0.10429797     1.49000
C248        C  0.30010876  0.18634572  0.07222086     0.92400
O249        O  0.26864688  0.10047829  0.11038044    -0.81200
O250        O  0.32442100  0.11202630  0.16525465    -0.74700
Al251      Al  0.28397920  0.15836976  0.12154905     1.90100
O252        O  0.29683032  0.05816110  0.13322589    -0.73800
O253        O  0.37532231  0.10563757  0.13862713    -0.73700
O254        O  0.34274929  0.06440313  0.10265516    -0.79300
O255        O  0.37612525  0.17877179  0.13110087    -0.77500
O256        O  0.32230235  0.14193059  0.11990202    -1.13700
O257        O  0.33425555  0.23422712  0.11395455    -0.72900
C258        C  0.31139483  0.24710161  0.12548436     0.97900
C259        C  0.27330212  0.06337273  0.12133848     0.94300
Al260      Al  0.33400273  0.08956295  0.13373602     1.55600
O261        O  0.28127667  0.18018910  0.08900692    -0.77500
C262        C  0.38876364  0.14367492  0.13947600     0.98400
C263        C  0.29881000  0.12820782  0.17086189     0.93300
O264        O  0.28040728  0.14111962  0.15481465    -0.82800
O265        O  0.29359453  0.81409508  0.87456695    -0.82300
C266        C  0.35907927  0.95104817  0.92017725     0.97100
O267        O  0.36934947  0.91088769  0.91800874    -0.71400
O268        O  0.32523829  0.86037197  0.93316854    -0.75000
Al269      Al  0.34860524  0.85824289  0.90520767     1.49000
C270        C  0.29803980  0.84987550  0.93554523     0.92400
O271        O  0.26893302  0.93165687  0.89646069    -0.81200
O272        O  0.32530780  0.91822433  0.84171298    -0.74700
Al273      Al  0.28424680  0.87376278  0.88564093     1.90100
O274        O  0.29852951  0.97392865  0.87407885    -0.73800
O275        O  0.37637880  0.92324952  0.86869578    -0.73700
O276        O  0.34374673  0.96883512  0.90351274    -0.79300
O277        O  0.37605594  0.85146064  0.87934224    -0.77500
O278        O  0.32256077  0.89071825  0.88785335    -1.13700
O279        O  0.33264927  0.79937947  0.89694049    -0.72900
C280        C  0.31144410  0.78565145  0.88376873     0.97900
C281        C  0.27519440  0.96954142  0.88659176     0.94300
Al282      Al  0.33519783  0.94170476  0.87312416     1.55600
O283        O  0.28043150  0.85189486  0.91789703    -0.77500
C284        C  0.38969649  0.88524904  0.87028854     0.98400
C285        C  0.29916033  0.90347598  0.83650951     0.93300
O286        O  0.28092804  0.89105604  0.85280745    -0.82800
O287        O  0.20959656  0.65892910  0.16304846    -0.82300
C288        C  0.14938233  0.59788401  0.08090027     0.97100
O289        O  0.14525708  0.57975423  0.10143788    -0.71400
O290        O  0.19686589  0.55735827  0.11952128    -0.75000
Al291      Al  0.16503541  0.59299485  0.13175320     1.49000
C292        C  0.22446562  0.56202836  0.12340715     0.92400
O293        O  0.23195213  0.66559499  0.09747954    -0.81200
O294        O  0.16243624  0.73250577  0.12524963    -0.74700
Al295      Al  0.21862094  0.66117872  0.13011264     1.90100
O296        O  0.19383596  0.70724746  0.08587509    -0.73800
O297        O  0.12205955  0.66800759  0.11518275    -0.73700
O298        O  0.15814350  0.63881741  0.07898155    -0.79300
O299        O  0.12986452  0.62129564  0.14513310    -0.77500
O300        O  0.18134826  0.64577896  0.12186646    -1.13700
O301        O  0.18301030  0.59514675  0.16357560    -0.72900
C302        C  0.19911725  0.62480767  0.17419211     0.97900
C303        C  0.22048517  0.69417698  0.08318949     0.94300
Al304      Al  0.16063108  0.68326793  0.10298333     1.55600
O305        O  0.23478161  0.59993448  0.13058853    -0.77500
C306        C  0.11225059  0.64626321  0.13314881     0.98400
C307        C  0.18740694  0.75020577  0.13087874     0.93300
O308        O  0.21091018  0.72595567  0.13166534    -0.82800
O309        O  0.71194431  0.86337103  0.85004012    -0.82300
C310        C  0.64897493  0.92017415  0.93276241     0.97100
O311        O  0.64581943  0.93821381  0.91209791    -0.71400
O312        O  0.69751080  0.96304013  0.89373047    -0.75000
Al313      Al  0.66594954  0.92615041  0.88161848     1.49000
C314        C  0.72525001  0.95892683  0.89004259     0.92400
O315        O  0.73281402  0.85271599  0.91585771    -0.81200
O316        O  0.66381769  0.78622635  0.88730229    -0.74700
Al317      Al  0.71995960  0.85928678  0.88319506     1.90100
O318        O  0.69427074  0.81102255  0.92700045    -0.73800
O319        O  0.62312336  0.84974552  0.89783441    -0.73700
O320        O  0.65817239  0.87942855  0.93459518    -0.79300
O321        O  0.63115849  0.89672078  0.86804829    -0.77500
O322        O  0.68248447  0.87365206  0.89139720    -1.13700
O323        O  0.68398672  0.92529330  0.84960653    -0.72900
C324        C  0.70047993  0.89647150  0.83883322     0.97900
C325        C  0.72102141  0.82347230  0.92978700     0.94300
Al326      Al  0.66149223  0.83517862  0.91001239     1.55600
O327        O  0.73589260  0.92068671  0.88385692    -0.77500
C328        C  0.61363428  0.87039690  0.87955698     0.98400
C329        C  0.68876898  0.76996229  0.88051243     0.93300
O330        O  0.71213728  0.79484183  0.88043986    -0.82800
O331        O  0.79437279  0.71301408  0.14297477    -0.82300
C332        C  0.85646163  0.57893174  0.09099224     0.97100
O333        O  0.86694602  0.61882486  0.09454999    -0.71400
O334        O  0.82270095  0.67073304  0.08249971    -0.75000
Al335      Al  0.84719422  0.67025968  0.10958722     1.49000
C336        C  0.79521507  0.67944688  0.08097988     0.92400
O337        O  0.76636707  0.59783369  0.12027088    -0.81200
O338        O  0.82685308  0.60222193  0.17143951    -0.74700
Al339      Al  0.78376803  0.65415769  0.13128046     1.90100
O340        O  0.79699588  0.55195549  0.13897336    -0.73800
O341        O  0.87567832  0.60049601  0.14256247    -0.73700
O342        O  0.84081353  0.55982726  0.10725571    -0.79300
O343        O  0.87539164  0.67382241  0.13505958    -0.77500
O344        O  0.82152029  0.63632314  0.12679297    -1.13700
O345        O  0.83228864  0.72899213  0.11948459    -0.72900
C346        C  0.81162300  0.74212640  0.13337462     0.97900
C347        C  0.77218345  0.55921606  0.12920581     0.94300
Al348      Al  0.83420758  0.58311014  0.13899336     1.55600
O349        O  0.77831482  0.67752235  0.09928451    -0.77500
C350        C  0.88876766  0.63896544  0.14302816     0.98400
C351        C  0.80206232  0.61871504  0.17869642     0.93300
O352        O  0.78294127  0.63475173  0.16412051    -0.82800
C353        C  0.73777729  0.80149815  0.94928867    -0.20300
C354        C  0.73336990  0.75434652  0.95390186     0.35900
C355        C  0.74426192  0.73509376  0.97509035    -0.26300
C356        C  0.75964347  0.76200202  0.99177934     0.02300
C357        C  0.76616566  0.80858267  0.98638603     0.27100
C358        C  0.75504684  0.82784366  0.96507229    -0.25400
N359        N  0.71742377  0.72605365  0.93717047    -0.82800
H360        H  0.73992402  0.69916550  0.97887155     0.12900
C361        C  0.76782051  0.74020064  0.01473249     0.02300
N362        N  0.78389656  0.83712574  0.00190889    -0.81400
H363        H  0.75876456  0.86394112  0.96138474     0.17800
C364        C  0.79027111  0.70683759  0.01471234    -0.26200
C365        C  0.79828591  0.68443230  0.03597357     0.35800
C366        C  0.78363888  0.69568491  0.05770870    -0.20300
C367        C  0.76002936  0.72736948  0.05744608    -0.25500
C368        C  0.75188099  0.74974467  0.03607767     0.27200
H369        H  0.80173431  0.69834745  0.99809751     0.12900
N370        N  0.82127194  0.65022247  0.03540801    -0.82800
H371        H  0.74867283  0.73600442  0.07407691     0.17800
N372        N  0.72722111  0.78137704  0.03585457    -0.81400
H373        H  0.81470995  0.62452084  0.02344460     0.33400
H374        H  0.84092514  0.66536236  0.02872874     0.37900
H375        H  0.71717560  0.78307427  0.05286532     0.33400
H376        H  0.73582754  0.81402439  0.03229792     0.30100
H377        H  0.77017959  0.86339149  0.00823454     0.33400
H378        H  0.79158888  0.81905004  0.01692077     0.30100
H379        H  0.69891703  0.71163016  0.94604262     0.37900
H380        H  0.73155148  0.69938497  0.93184984     0.33400
C381        C  0.07959422  0.64914658  0.13911202    -0.20300
C382        C  0.05872369  0.66586136  0.12204523     0.35900
C383        C  0.02807918  0.66669655  0.12758484    -0.26300
C384        C  0.01723145  0.65102133  0.14978896     0.02300
C385        C  0.03771698  0.63446003  0.16701578     0.27100
C386        C  0.06869800  0.63354481  0.16149228    -0.25400
N387        N  0.06824832  0.68073520  0.09863269    -0.82800
H388        H  0.01245847  0.67861575  0.11406489     0.12900
C389        C  0.98414138  0.64970453  0.15361022     0.02300
N390        N  0.02696459  0.61866589  0.18998742    -0.81400
H391        H  0.08434309  0.62057143  0.17469489     0.17800
C392        C  0.96975685  0.60737706  0.15718664    -0.26200
C393        C  0.93829882  0.60334741  0.15596914     0.35800
C394        C  0.92084067  0.64257604  0.15049308    -0.20300
C395        C  0.93525899  0.68551361  0.14904709    -0.25500
C396        C  0.96663625  0.68945991  0.15060591     0.27200
H397        H  0.98323372  0.57691781  0.15970456     0.12900
N398        N  0.92432971  0.55922184  0.15921643    -0.82800
H399        H  0.92218642  0.71600844  0.14550865     0.17800
N400        N  0.98096688  0.73350095  0.14823596    -0.81400
H401        H  0.94045863  0.53393312  0.16236016     0.33400
H402        H  0.91117040  0.56090581  0.17476285     0.37900
H403        H  0.96500435  0.75929765  0.14592383     0.33400
H404        H  0.99188199  0.74036647  0.16443923     0.30100
H405        H  0.04480286  0.60757180  0.20062486     0.33400
H406        H  0.01745017  0.64673992  0.19880162     0.30100
H407        H  0.06144808  0.71470253  0.09624806     0.37900
H408        H  0.05733347  0.66056112  0.08581748     0.33400
C409        C  0.58130524  0.86504945  0.87280523    -0.20300
C410        C  0.56108829  0.83875290  0.88719283     0.35900
C411        C  0.53017619  0.84028261  0.88251130    -0.26300
C412        C  0.51867781  0.86559208  0.86323408     0.02300
C413        C  0.53881250  0.88889963  0.84774371     0.27100
C414        C  0.56982525  0.88889225  0.85284080    -0.25400
N415        N  0.57169226  0.81133413  0.90693774    -0.82800
H416        H  0.51478199  0.82239359  0.89443667     0.12900
C417        C  0.48542960  0.87007075  0.86093524     0.02300
N418        N  0.52760244  0.91287004  0.82705703    -0.81400
H419        H  0.58498497  0.90829919  0.84139629     0.17800
C420        C  0.47265327  0.91393047  0.86131431    -0.26200
C421        C  0.44137693  0.92003819  0.86272622     0.35800
C422        C  0.42219401  0.88114911  0.86397801    -0.20300
C423        C  0.43505024  0.83724153  0.86256613    -0.25500
C424        C  0.46633663  0.83130502  0.86099821     0.27200
H425        H  0.48728378  0.94368817  0.86160207     0.12900
N426        N  0.42936558  0.96561446  0.86430756    -0.82800
H427        H  0.42067529  0.80723070  0.86346231     0.17800
N428        N  0.47886342  0.78600000  0.86008099    -0.81400
H429        H  0.44660070  0.99002477  0.86471711     0.33400
H430        H  0.41740033  0.97178692  0.84850438     0.37900
H431        H  0.46188132  0.76115919  0.86055610     0.33400
H432        H  0.48976783  0.78262324  0.84351499     0.30100
H433        H  0.54523312  0.92819352  0.81745869     0.33400
H434        H  0.51800061  0.88852399  0.81565473     0.30100
H435        H  0.58423226  0.78447774  0.89964900     0.37900
H436        H  0.55382609  0.79603268  0.91623000     0.33400
C437        C  0.28792237  0.83066257  0.95877555    -0.20300
C438        C  0.25757073  0.83067418  0.96613576     0.35900
C439        C  0.24953340  0.80813662  0.98754614    -0.26300
C440        C  0.27108170  0.78553116  0.00154937     0.02300
C441        C  0.30132615  0.78596154  0.99441793     0.27100
C442        C  0.30944289  0.80853288  0.97312976    -0.25400
N443        N  0.23514561  0.85398511  0.95223206    -0.82800
H444        H  0.22625045  0.80761250  0.99323864     0.12900
C445        C  0.26151142  0.76235056  0.02390919     0.02300
N446        N  0.32361833  0.76350706  0.00883577    -0.81400
H447        H  0.33272366  0.80788621  0.96746393     0.17800
C448        C  0.26595629  0.71490906  0.02672635    -0.26200
C449        C  0.25424525  0.69148034  0.04684339     0.35800
C450        C  0.23794340  0.71633733  0.06408814    -0.20300
C451        C  0.23490591  0.76397576  0.06178359    -0.25500
C452        C  0.24667325  0.78729449  0.04193171     0.27200
H453        H  0.27751954  0.69599655  0.01277619     0.12900
N454        N  0.25777941  0.64273342  0.04932313    -0.82800
H455        H  0.22262897  0.78293616  0.07535154     0.17800
N456        N  0.24306854  0.83607067  0.03965770    -0.81400
H457        H  0.27038210  0.62975013  0.03500424     0.33400
H458        H  0.23650476  0.62770532  0.04817585     0.37900
H459        H  0.23047114  0.84887602  0.05401775     0.33400
H460        H  0.26436238  0.85102133  0.04070852     0.30100
H461        H  0.34484519  0.76665865  0.00090681     0.33400
H462        H  0.32466308  0.78061441  0.02529584     0.30100
H463        H  0.23129802  0.83458731  0.93678170     0.37900
H464        H  0.21470722  0.85452187  0.96152676     0.33400
C465        C  0.36507003  0.06177747  0.06304942    -0.20300
C466        C  0.35889071  0.01501849  0.05832895     0.35900
C467        C  0.36138880  0.99842442  0.03459306    -0.26300
C468        C  0.36961432  0.02753895  0.01550348     0.02300
C469        C  0.37599859  0.07391313  0.02012907     0.27100
C470        C  0.37410360  0.09032686  0.04379685    -0.25400
N471        N  0.34945292  0.98481334  0.07739798    -0.82800
H472        H  0.35605121  0.96289978  0.03079295     0.12900
C473        C  0.36816947  0.01028308  0.99046361     0.02300
N474        N  0.38271056  0.10475031  0.00058564    -0.81400
H475        H  0.37832747  0.12641135  0.04694544     0.17800
C476        C  0.34040345  0.01046408  0.97877910    -0.26200
C477        C  0.33724820  0.99224574  0.95557083     0.35800
C478        C  0.36269280  0.97507206  0.94338835    -0.20300
C479        C  0.39057111  0.97505014  0.95506540    -0.25500
C480        C  0.39358297  0.99256972  0.97854858     0.27200
H481        H  0.32090062  0.02349752  0.98819277     0.12900
N482        N  0.30800095  0.98867346  0.94490667    -0.82800
H483        H  0.40986213  0.96052546  0.94599899     0.17800
N484        N  0.42199266  0.99085295  0.99064560    -0.81400
H485        H  0.29167751  0.00281255  0.95619303     0.33400
H486        H  0.30277436  0.95385483  0.94330695     0.37900
H487        H  0.43820959  0.97585956  0.97959997     0.33400
H488        H  0.42909421  0.02453378  0.99365693     0.30100
H489        H  0.38571210  0.13816515  0.00690219     0.33400
H490        H  0.40318744  0.09491106  0.99304680     0.30100
H491        H  0.36734773  0.98178404  0.08938008     0.37900
H492        H  0.34519329  0.95191186  0.07077666     0.33400
C493        C  0.19074035  0.80042329  0.13328942    -0.20300
C494        C  0.17757696  0.83027760  0.11638237     0.35900
C495        C  0.18669019  0.87638130  0.11526899    -0.26300
C496        C  0.20940531  0.89315513  0.13031434     0.02300
C497        C  0.22192626  0.86365167  0.14782129     0.27100
C498        C  0.21226834  0.81774879  0.14921567    -0.25400
N499        N  0.15665614  0.81317067  0.09907037    -0.82800
H500        H  0.17691133  0.89870616  0.10183234     0.12900
C501        C  0.22144884  0.94043222  0.12652688     0.02300
N502        N  0.24544848  0.87973698  0.16331821    -0.81400
H503        H  0.22280728  0.79465616  0.16190814     0.17800
C504        C  0.22293439  0.97063617  0.14606289    -0.26200
C505        C  0.23817477  0.01274510  0.14411777     0.35800
C506        C  0.25118937  0.02575093  0.12194059    -0.20300
C507        C  0.24804726  0.99718448  0.10194977    -0.25500
C508        C  0.23370714  0.95420655  0.10409720     0.27200
H509        H  0.21333667  0.96035150  0.16318918     0.12900
N510        N  0.24185089  0.04147252  0.16487946    -0.82800
H511        H  0.25880076  0.00684524  0.08516274     0.17800
N512        N  0.23317673  0.92338937  0.08400865    -0.81400
H513        H  0.23152931  0.02670041  0.17993166     0.33400
H514        H  0.23071185  0.07231774  0.16148317     0.37900
H515        H  0.24309548  0.93863658  0.06888819     0.33400
H516        H  0.24647152  0.89519991  0.08849014     0.30100
H517        H  0.25210688  0.85385963  0.17519281     0.33400
H518        H  0.26407435  0.88740169  0.15253699     0.30100
H519        H  0.16561955  0.81891589  0.08191308     0.37900
H520        H  0.13687339  0.83207042  0.10059852     0.33400
C521        C  0.24427090  0.52158138  0.12094571    -0.20300
C522        C  0.23831075  0.48739964  0.10365771     0.35900
C523        C  0.25358559  0.44540292  0.10489749    -0.26300
C524        C  0.27469148  0.43691271  0.12300206     0.02300
C525        C  0.28220005  0.47210217  0.13923681     0.27100
C526        C  0.26718549  0.51444703  0.13782406    -0.25400
N527        N  0.21627149  0.49509340  0.08527504    -0.82800
H528        H  0.24816180  0.41836896  0.09229444     0.12900
C529        C  0.28572614  0.38935190  0.12634147     0.02300
N530        N  0.30399241  0.46395703  0.15772394    -0.81400
H531        H  0.27199639  0.54080972  0.15095076     0.17800
C532        C  0.31545847  0.37791950  0.12069169    -0.26200
C533        C  0.32529017  0.33197418  0.12173066     0.35800
C534        C  0.30481280  0.29688888  0.12858259    -0.20300
C535        C  0.27557495  0.30932894  0.13556645    -0.25500
C536        C  0.26585755  0.35494165  0.13442335     0.27200
H537        H  0.33073303  0.40472445  0.11480578     0.12900
N538        N  0.35566387  0.32090356  0.11529416    -0.82800
H539        H  0.25961684  0.28310493  0.14096694     0.17800
N540        N  0.23552519  0.36646100  0.14083225    -0.81400
H541        H  0.36755025  0.35045504  0.11037016     0.33400
H542        H  0.36609228  0.30789543  0.13067763     0.37900
H543        H  0.22353398  0.33716176  0.14607739     0.33400
H544        H  0.23641875  0.38786106  0.15584732     0.30100
H545        H  0.30691756  0.49332378  0.16822287     0.33400
H546        H  0.29535814  0.43858931  0.16915308     0.30100
H547        H  0.22391049  0.52231724  0.07453946     0.37900
H548        H  0.21451676  0.46658330  0.07404212     0.33400
C549        C  0.25547806  0.00979518  0.88844908    -0.20300
C550        C  0.26776337  0.05228052  0.89538010     0.35900
C551        C  0.25153631  0.09259975  0.89176483    -0.26300
C552        C  0.22355048  0.09176072  0.88044415     0.02300
C553        C  0.21086076  0.04933465  0.87357304     0.27100
C554        C  0.22682162  0.00846712  0.87806434    -0.25400
N555        N  0.29738509  0.05480523  0.90518014    -0.82800
H556        H  0.26144105  0.12512750  0.89691054     0.12900
C557        C  0.20946881  0.13643303  0.87469470     0.02300
N558        N  0.18296661  0.04818879  0.86070472    -0.81400
H559        H  0.21792382  0.97597448  0.87185986     0.17800
C560        C  0.22362759  0.16440270  0.85739184    -0.26200
C561        C  0.21594654  0.21076405  0.85481141     0.35800
C562        C  0.19315275  0.22944002  0.86927985    -0.20300
C563        C  0.17712604  0.20044580  0.88500892    -0.25500
C564        C  0.18557919  0.15461439  0.88850777     0.27200
H565        H  0.24203483  0.15083868  0.84683005     0.12900
N566        N  0.23199011  0.23917116  0.83805011    -0.82800
H567        H  0.15983385  0.21461848  0.89651598     0.17800
N568        N  0.17071106  0.12891085  0.90723060    -0.81400
H569        H  0.22957834  0.22494425  0.82093586     0.33400
H570        H  0.25474310  0.23832808  0.84252666     0.37900
H571        H  0.17488105  0.14558551  0.92350760     0.33400
H572        H  0.17950952  0.09604449  0.90907378     0.30100
H573        H  0.17736489  0.01448431  0.85614604     0.33400
H574        H  0.16606519  0.05964538  0.87224054     0.30100
H575        H  0.31049367  0.07540834  0.89382875     0.37900
H576        H  0.29602909  0.07105620  0.92187693     0.33400
C577        C  0.24353080  0.51100993  0.88634637    -0.20300
C578        C  0.27207783  0.51601933  0.87524588     0.35900
C579        C  0.28683672  0.55886322  0.87592280    -0.26300
C580        C  0.27364036  0.59660720  0.88723632     0.02300
C581        C  0.24622085  0.59108240  0.89952896     0.27100
C582        C  0.23149344  0.54845974  0.89899245    -0.25400
N583        N  0.28556039  0.47843862  0.86257669    -0.82800
H584        H  0.30806008  0.56347103  0.86663996     0.12900
C585        C  0.28694431  0.64290749  0.88420535     0.02300
N586        N  0.23298771  0.62935397  0.91181612    -0.81400
H587        H  0.21002267  0.54493449  0.90798219     0.17800
C588        C  0.27459797  0.67232437  0.86696451    -0.26200
C589        C  0.28389989  0.71830925  0.86505802     0.35800
C590        C  0.30575718  0.73550581  0.88113275    -0.20300
C591        C  0.31946317  0.70488134  0.89735918    -0.25500
C592        C  0.31013292  0.65880413  0.89913107     0.27200
H593        H  0.25703455  0.65950957  0.85532421     0.12900
N594        N  0.27066782  0.74770968  0.84725563    -0.82800
H595        H  0.33636980  0.71742310  0.90966310     0.17800
N596        N  0.32344448  0.62850542  0.91646797    -0.81400
H597        H  0.25464647  0.72987011  0.83720257     0.33400
H598        H  0.28765796  0.75740350  0.83526281     0.37900
H599        H  0.34035626  0.64543545  0.92597129     0.33400
H600        H  0.30687117  0.61963516  0.92902088     0.30100
H601        H  0.21254376  0.61985127  0.91971070     0.33400
H602        H  0.24730346  0.63842352  0.92587834     0.30100
H603        H  0.27259342  0.47207731  0.84733335     0.37900
H604        H  0.30692722  0.48750285  0.85629850     0.33400
C605        C  0.14108156  0.45285803  0.94649407    -0.20300
C606        C  0.13715257  0.50096693  0.94733980     0.35900
C607        C  0.13515592  0.52287758  0.96980541    -0.26300
C608        C  0.13818173  0.49827599  0.99142257     0.02300
C609        C  0.14109226  0.45024973  0.99064584     0.27100
C610        C  0.14191819  0.42810168  0.96829863    -0.25400
N611        N  0.13623576  0.52775815  0.92561895    -0.82800
H612        H  0.13254851  0.55977534  0.97049308     0.12900
C613        C  0.14067985  0.52364684  0.01451139     0.02300
N614        N  0.14445648  0.42428260  0.01249245    -0.81400
H615        H  0.14464315  0.39121773  0.96801164     0.17800
C616        C  0.12161302  0.51277283  0.03395885    -0.26200
C617        C  0.12394767  0.53604577  0.05606174     0.35800
C618        C  0.14546122  0.57129255  0.05851794    -0.20300
C619        C  0.16447642  0.58191280  0.03906901    -0.25500
C620        C  0.16269236  0.55808246  0.01731467     0.27200
H621        H  0.10474519  0.48626699  0.03180424     0.12900
N622        N  0.10433681  0.52451902  0.07575947    -0.82800
H623        H  0.18140525  0.60840041  0.04103519     0.17800
N624        N  0.18353709  0.56817842  0.99818270    -0.81400
H625        H  0.08996582  0.49765835  0.07102376     0.33400
H626        H  0.09077533  0.55300750  0.07910668     0.37900
H627        H  0.19819928  0.59457338  0.00310472     0.33400
H628        H  0.19670459  0.53902346  0.99552069     0.30100
H629        H  0.14621628  0.38926849  0.00880082     0.33400
H630        H  0.16474349  0.43416033  0.02035497     0.30100
H631        H  0.15761238  0.52678529  0.91788295     0.37900
H632        H  0.13209721  0.56222894  0.92950233     0.33400
C633        C  0.29041129  0.20619822  0.04883155    -0.20300
C634        C  0.31117936  0.22786959  0.03303949     0.35900
C635        C  0.30095181  0.25047235  0.01237579    -0.26300
C636        C  0.27037717  0.25216865  0.00702906     0.02300
C637        C  0.24948810  0.23069373  0.02254934     0.27100
C638        C  0.25969924  0.20783764  0.04325726    -0.25400
N639        N  0.34266301  0.22825250  0.03813625    -0.82800
H640        H  0.31702713  0.26674015  0.00037833     0.12900
C641        C  0.26052618  0.27439116  0.98445124     0.02300
N642        N  0.21796639  0.23264882  0.01727978    -0.81400
H643        H  0.24353722  0.19186333  0.05526706     0.17800
C644        C  0.24808390  0.24675232  0.96654648    -0.26200
C645        C  0.23674023  0.26601436  0.94539853     0.35800
C646        C  0.23764444  0.31402640  0.94216291    -0.20300
C647        C  0.25150737  0.34172029  0.95947092    -0.25500
C648        C  0.26289575  0.32223999  0.98079167     0.27200
H649        H  0.24689164  0.20997108  0.96927797     0.12900
N650        N  0.22388637  0.23707566  0.92722225    -0.82800
H651        H  0.25206752  0.37856243  0.95690915     0.17800
N652        N  0.27599206  0.35078022  0.99900224    -0.81400
H653        H  0.22469510  0.20262034  0.93241905     0.33400
H654        H  0.23724564  0.24019138  0.91180376     0.37900
H655        H  0.27598668  0.38513478  0.99353654     0.33400
H656        H  0.26227724  0.34867934  0.01425415     0.30100
H657        H  0.20554939  0.21510884  0.03041099     0.33400
H658        H  0.21147664  0.26701052  0.01817579     0.30100
H659        H  0.34973610  0.26238766  0.03940609     0.37900
H660        H  0.35391603  0.21320604  0.02366439     0.33400
C661        C  0.74973816  0.52228707  0.13042051    -0.20300
C662        C  0.73590011  0.51235247  0.15269957     0.35900
C663        C  0.72148445  0.46988926  0.15612239    -0.26300
C664        C  0.72080242  0.43738086  0.13767048     0.02300
C665        C  0.73334672  0.44819864  0.11497916     0.27100
C666        C  0.74769116  0.49082503  0.11153852    -0.25400
N667        N  0.73820769  0.54446600  0.17217504    -0.82800
H668        H  0.71191403  0.46125867  0.17350414     0.12900
C669        C  0.70982899  0.39039804  0.14288237     0.02300
N670        N  0.73264178  0.41499215  0.09593178    -0.81400
H671        H  0.75901695  0.49824090  0.09468310     0.17800
C672        C  0.68205829  0.37615934  0.13388533    -0.26200
C673        C  0.67337564  0.32972253  0.13471730     0.35800
C674        C  0.69302248  0.29695087  0.14493546    -0.20300
C675        C  0.71971600  0.31228849  0.15575472    -0.25500
C676        C  0.72839486  0.35861969  0.15470401     0.27200
H677        H  0.66787034  0.40101575  0.12499055     0.12900
N678        N  0.64563298  0.31569743  0.12383637    -0.82800
H679        H  0.73473915  0.28760685  0.16386269     0.17800
N680        N  0.75655770  0.37324503  0.16469627    -0.81400
H681        H  0.63319030  0.34429476  0.11850795     0.33400
H682        H  0.65097136  0.29807399  0.10807763     0.37900
H683        H  0.76747717  0.34573370  0.17291536     0.33400
H684        H  0.77033128  0.38402130  0.15047661     0.30100
H685        H  0.74277638  0.42827950  0.08040286     0.33400
H686        H  0.74559033  0.38697304  0.10128061     0.30100
H687        H  0.72679012  0.57417535  0.16708904     0.37900
H688        H  0.72737790  0.53176014  0.18753268     0.33400
C689        C  0.74291145  0.01634389  0.12628865    -0.20300
C690        C  0.73454536  0.97924466  0.11140916     0.35900
C691        C  0.74977889  0.93722834  0.11337964    -0.26300
C692        C  0.77335815  0.93142269  0.12974095     0.02300
C693        C  0.78309099  0.96919311  0.14345273     0.27100
C694        C  0.76793631  0.01143487  0.14144013    -0.25400
N695        N  0.71020124  0.98405759  0.09470768    -0.82800
H696        H  0.74262786  0.90826684  0.10263517     0.12900
C697        C  0.78534991  0.88441285  0.13379783     0.02300
N698        N  0.80748967  0.96396820  0.16003835    -0.81400
H699        H  0.77455400  0.03975172  0.15283991     0.17800
C700        C  0.81418636  0.87256709  0.12580939    -0.26200
C701        C  0.82427309  0.82683162  0.12705768     0.35800
C702        C  0.80521293  0.79210406  0.13643397    -0.20300
C703        C  0.77719651  0.80503371  0.14596997    -0.25500
C704        C  0.76712827  0.85061291  0.14471578     0.27200
H705        H  0.82853328  0.89860058  0.11782465     0.12900
N706        N  0.85365359  0.81583106  0.11837918    -0.82800
H707        H  0.76233847  0.77914275  0.15344740     0.17800
N708        N  0.73802162  0.86265620  0.15390252    -0.81400
H709        H  0.85504647  0.82569661  0.10032503     0.33400
H710        H  0.86922074  0.83527261  0.12804578     0.37900
H711        H  0.72719079  0.83385300  0.16119208     0.33400
H712        H  0.74122970  0.88558855  0.16805111     0.30100
H713        H  0.81189820  0.99496782  0.16877854     0.33400
H714        H  0.80065954  0.94068830  0.17331343     0.30100
H715        H  0.70681554  0.95363244  0.08519949     0.37900
H716        H  0.71648152  0.00896780  0.08206047     0.33400
C717        C  0.64082919  0.07493638  0.06493504    -0.20300
C718        C  0.62360417  0.03418199  0.06388559     0.35900
C719        C  0.62185798  0.00974503  0.04206145    -0.26300
C720        C  0.63690870  0.02514961  0.02125593     0.02300
C721        C  0.65329287  0.06660987  0.02214777     0.27100
C722        C  0.65480318  0.09114515  0.04380581    -0.25400
N723        N  0.60804184  0.01765898  0.08489163    -0.82800
H724        H  0.60897933  0.97819759  0.04130304     0.12900
C725        C  0.63696366  0.99654606  0.99900641     0.02300
N726        N  0.66923775  0.08287798  0.00124534    -0.81400
H727        H  0.66816594  0.12224689  0.04437556     0.17800
C728        C  0.62741328  0.01549471  0.97709640    -0.26200
C729        C  0.63052478  0.99150977  0.95523280     0.35800
C730        C  0.64284078  0.94674747  0.95529267    -0.20300
C731        C  0.65102119  0.92720168  0.97754631    -0.25500
C732        C  0.64857455  0.95166494  0.99922598     0.27200
H733        H  0.61830701  0.04988311  0.97698479     0.12900
N734        N  0.62146064  0.01289176  0.93312114    -0.82800
H735        H  0.66046704  0.89305757  0.97804342     0.17800
N736        N  0.65875569  0.93157618  0.02137840    -0.81400
H737        H  0.61087562  0.04413765  0.93650590     0.33400
H738        H  0.64096943  0.02093776  0.92346061     0.37900
H739        H  0.66657327  0.89826983  0.01853312     0.33400
H740        H  0.67709975  0.95083295  0.02733484     0.30100
H741        H  0.68006990  0.11399628  0.00483012     0.33400
H742        H  0.68605105  0.05915119  0.99733354     0.30100
H743        H  0.59172310  0.04188701  0.08934835     0.37900
H744        H  0.59660918  0.98716415  0.08112413     0.33400
C745        C  0.42040629  0.14557468  0.14807340    -0.20300
C746        C  0.43455409  0.18711492  0.15462619     0.35900
C747        C  0.46579376  0.18793304  0.15854174    -0.26300
C748        C  0.48331950  0.14827073  0.15580930     0.02300
C749        C  0.46887778  0.10620733  0.15083528     0.27100
C750        C  0.43762982  0.10524364  0.14735034    -0.25400
N751        N  0.41734107  0.22846873  0.15677243    -0.82800
H752        H  0.47677940  0.22008473  0.16281353     0.12900
C753        C  0.51678816  0.15211067  0.15519952     0.02300
N754        N  0.48614768  0.06498438  0.14812537    -0.81400
H755        H  0.42700868  0.07310466  0.14252118     0.17800
C756        C  0.53461467  0.12411109  0.16999010    -0.26200
C757        C  0.56617492  0.12286626  0.16736603     0.35800
C758        C  0.58023907  0.15036084  0.14954477    -0.20300
C759        C  0.56233229  0.18056227  0.13599770    -0.25500
C760        C  0.53098499  0.18119803  0.13830868     0.27200
H761        H  0.52374624  0.10222921  0.18320340     0.12900
N762        N  0.58368009  0.09287665  0.18223842    -0.82800
H763        H  0.57263387  0.20242873  0.12249847     0.17800
N764        N  0.51341376  0.20982654  0.12269815    -0.81400
H765        H  0.56981084  0.07416743  0.19391867     0.33400
H766        H  0.59731492  0.11345980  0.19304057     0.37900
H767        H  0.52723035  0.22940402  0.11139697     0.33400
H768        H  0.50083829  0.18829897  0.11155885     0.30100
H769        H  0.47214706  0.03694415  0.14465241     0.33400
H770        H  0.49990203  0.06909483  0.13299342     0.30100
H771        H  0.40217991  0.22380323  0.17097030     0.37900
H772        H  0.43115046  0.25605633  0.16148123     0.33400
C773        C  0.86168886  0.55620856  0.06714949    -0.20300
C774        C  0.84660797  0.51535291  0.06032158     0.35900
C775        C  0.85001238  0.49840778  0.03674292    -0.26300
C776        C  0.86789999  0.52115416  0.01959072     0.02300
C777        C  0.88298332  0.56170855  0.02625482     0.27100
C778        C  0.87982540  0.57863743  0.04985247    -0.25400
N779        N  0.82706191  0.49186723  0.07694163    -0.82800
H780        H  0.83813293  0.46753590  0.03151481     0.12900
C781        C  0.86981281  0.50242956  0.99461574     0.02300
N782        N  0.90130564  0.58573988  0.00897563    -0.81400
H783        H  0.89122870  0.61019738  0.05456770     0.17800
C784        C  0.85966080  0.52874781  0.97509872    -0.26200
C785        C  0.85824824  0.51043110  0.95164794     0.35800
C786        C  0.86691937  0.46438368  0.94758431    -0.20300
C787        C  0.87859146  0.43908183  0.96704089    -0.25500
C788        C  0.88016303  0.45756176  0.99036180     0.27200
H789        H  0.85191912  0.56335959  0.97833172     0.12900
N790        N  0.84733299  0.53818347  0.93218495    -0.82800
H791        H  0.88557544  0.40394803  0.96432383     0.17800
N792        N  0.89174162  0.43061314  0.00989889    -0.81400
H793        H  0.84129812  0.57073279  0.93830516     0.33400
H794        H  0.86510199  0.54303812  0.92009860     0.37900
H795        H  0.89819371  0.39815243  0.00389883     0.33400
H796        H  0.91118413  0.44686669  0.01604621     0.30100
H797        H  0.91059533  0.61526000  0.01656721     0.33400
H798        H  0.91924037  0.56436824  0.00445631     0.30100
H799        H  0.84046668  0.47787845  0.09046246     0.37900
H800        H  0.81634810  0.46421909  0.06862029     0.33400
C801        C  0.75378708  0.49775193  0.88604861    -0.20300
C802        C  0.74114525  0.51976209  0.90612755     0.35900
C803        C  0.72452004  0.56036290  0.90266928    -0.26300
C804        C  0.71991631  0.57864235  0.87946979     0.02300
C805        C  0.73030648  0.55383424  0.85934735     0.27100
C806        C  0.74754286  0.51426392  0.86288468    -0.25400
N807        N  0.74642365  0.50219725  0.92989536    -0.82800
H808        H  0.71667170  0.57917807  0.91820860     0.12900
C809        C  0.70801190  0.62623156  0.87658899     0.02300
N810        N  0.72401427  0.56970919  0.83539256    -0.81400
H811        H  0.75681579  0.49663201  0.84742828     0.17800
C812        C  0.72473853  0.65791925  0.86289558    -0.26200
C813        C  0.71685196  0.70440191  0.86181174     0.35800
C814        C  0.69219412  0.72028180  0.87541482    -0.20300
C815        C  0.67421320  0.68825554  0.88784757    -0.25500
C816        C  0.68180366  0.64133455  0.88848502     0.27200
H817        H  0.74492122  0.64675376  0.85376482     0.12900
N818        N  0.73450943  0.73589908  0.84763121    -0.82800
H819        H  0.65522808  0.70018904  0.89827807     0.17800
N820        N  0.66348636  0.60924327  0.90166843    -0.81400
H821        H  0.72060960  0.74911972  0.83421038     0.33400
H822        H  0.75196356  0.71883330  0.83885892     0.37900
H823        H  0.64519692  0.62585553  0.90953850     0.33400
H824        H  0.65469765  0.58585727  0.88932010     0.30100
H825        H  0.73349117  0.54783744  0.82260709     0.33400
H826        H  0.70078256  0.56814479  0.83302214     0.30100
H827        H  0.76941596  0.50505929  0.93332889     0.37900
H828        H  0.73547681  0.52230983  0.94269852     0.33400
C829        C  0.80512122  0.22629117  0.88211839    -0.20300
C830        C  0.77666422  0.21172584  0.87366219     0.35900
C831        C  0.76809677  0.16561155  0.87565850    -0.26300
C832        C  0.78704550  0.13301915  0.88600865     0.02300
C833        C  0.81607511  0.14630494  0.89323097     0.27100
C834        C  0.82490085  0.19277231  0.89112155    -0.25400
N835        N  0.75563076  0.24372387  0.86392756    -0.82800
H836        H  0.74589699  0.15539105  0.86977398     0.12900
C837        C  0.77490323  0.08606596  0.89021632     0.02300
N838        N  0.83599941  0.11297110  0.90344625    -0.81400
H839        H  0.84675831  0.20311402  0.89765147     0.17800
C840        C  0.78552677  0.04907513  0.87664619    -0.26200
C841        C  0.77079790  0.00615094  0.87725662     0.35800
C842        C  0.74482424  0.00032932  0.89177910    -0.20300
C843        C  0.73555185  0.03674577  0.90649969    -0.25500
C844        C  0.75045401  0.07930644  0.90600914     0.27200
H845        H  0.80443481  0.05440182  0.86464287     0.12900
N846        N  0.78142051  0.96933282  0.86240337    -0.82800
H847        H  0.71606510  0.03236752  0.91800800     0.17800
N848        N  0.74038068  0.11631424  0.92098691    -0.81400
H849        H  0.80096042  0.97911049  0.85318865     0.33400
H850        H  0.76523765  0.96309637  0.84931422     0.37900
H851        H  0.72205220  0.10594521  0.93152676     0.33400
H852        H  0.75772938  0.12417925  0.93287518     0.30100
H853        H  0.85653448  0.12823119  0.90787862     0.33400
H854        H  0.82643533  0.10144293  0.91954863     0.30100
H855        H  0.73624423  0.24278485  0.87456881     0.37900
H856        H  0.74987785  0.23283730  0.84665359     0.33400
C857        C  0.92411285  0.37841801  0.86516878    -0.20300
C858        C  0.94295575  0.41693630  0.86866227     0.35900
C859        C  0.97373885  0.41400488  0.86369316    -0.26300
C860        C  0.98658617  0.37340739  0.85507609     0.02300
C861        C  0.96767323  0.33527723  0.85058380     0.27100
C862        C  0.93671038  0.33801691  0.85593598    -0.25400
N863        N  0.93130488  0.45853104  0.87859167    -0.82800
H864        H  0.98793754  0.44319078  0.86777402     0.12900
C865        C  0.02006409  0.37023686  0.85389988     0.02300
N866        N  0.98005421  0.29379445  0.84091210    -0.81400
H867        H  0.92241298  0.30841143  0.85308778     0.17800
C868        C  0.03435880  0.33496240  0.86656954    -0.26200
C869        C  0.06549634  0.33524951  0.87002064     0.35800
C870        C  0.08311011  0.37216614  0.86117685    -0.20300
C871        C  0.06918584  0.40564289  0.84686415    -0.25500
C872        C  0.03788599  0.40488078  0.84300631     0.27200
H873        H  0.02114074  0.30805786  0.87499362     0.12900
N874        N  0.07897359  0.29829406  0.88307644    -0.82800
H875        H  0.08247022  0.43365619  0.83959364     0.17800
N876        N  0.02399034  0.43985842  0.82865548    -0.81400
H877        H  0.07408030  0.26771474  0.87412231     0.33400
H878        H  0.06908447  0.29670583  0.90013918     0.37900
H879        H  0.04008294  0.46287968  0.82204776     0.33400
H880        H  0.01445829  0.42381662  0.81371484     0.30100
H881        H  0.96326693  0.26900289  0.83872490     0.33400
H882        H  0.98837195  0.30136821  0.82375520     0.30100
H883        H  0.94269553  0.46536074  0.89459276     0.37900
H884        H  0.93591095  0.48520449  0.86650901     0.33400
C885        C  0.73437644  0.21611334  0.06928641    -0.20300
C886        C  0.75112743  0.19105645  0.05235124     0.35900
C887        C  0.76261840  0.21383679  0.03191968    -0.26300
C888        C  0.75739404  0.26083380  0.02818813     0.02300
C889        C  0.74080787  0.28581483  0.04522465     0.27100
C890        C  0.72956995  0.26322930  0.06560050    -0.25400
N891        N  0.75484366  0.14242081  0.05517211    -0.82800
H892        H  0.77502458  0.19473224  0.01851493     0.12900
C893        C  0.76849117  0.28320351  0.00594461     0.02300
N894        N  0.73515475  0.33385651  0.04158552    -0.81400
H895        H  0.71654185  0.28244267  0.07860282     0.17800
C896        C  0.74780880  0.30199847  0.98982473    -0.26200
C897        C  0.75715602  0.32160684  0.96808958     0.35800
C898        C  0.78818643  0.32293105  0.96219446    -0.20300
C899        C  0.80888879  0.30538295  0.97893006    -0.25500
C900        C  0.79934155  0.28554711  0.00069331     0.27200
H901        H  0.72403374  0.30045923  0.99394873     0.12900
N902        N  0.73445841  0.33947986  0.95253063    -0.82800
H903        H  0.83267178  0.30612907  0.97485973     0.17800
N904        N  0.82078837  0.26756020  0.01746346    -0.81400
H905        H  0.73406273  0.32039222  0.93667600     0.33400
H906        H  0.73940599  0.37380840  0.94865817     0.37900
H907        H  0.84262913  0.27164564  0.01084984     0.33400
H908        H  0.81938172  0.28715325  0.03313294     0.30100
H909        H  0.72209873  0.34697210  0.05561595     0.33400
H910        H  0.75577419  0.35099314  0.04217922     0.30100
H911        H  0.76850667  0.13706167  0.07014908     0.37900
H912        H  0.76633307  0.12883955  0.04043132     0.33400
C913        C  0.79385532  0.61899637  0.20441096    -0.20300
C914        C  0.78392110  0.65992719  0.21502583     0.35900
C915        C  0.76969089  0.65880819  0.23751935    -0.26300
C916        C  0.76520664  0.61727806  0.24987491     0.02300
C917        C  0.77636789  0.57625839  0.23976900     0.27100
C918        C  0.79056820  0.57751569  0.21702849    -0.25400
N919        N  0.78789765  0.70275759  0.20270660    -0.82800
H920        H  0.76141636  0.69052761  0.24511204     0.12900
C921        C  0.74876381  0.61772475  0.27329161     0.02300
N922        N  0.77286501  0.53357139  0.25247704    -0.81400
H923        H  0.79780427  0.54591437  0.20865845     0.17800
C924        C  0.72267118  0.59097879  0.27643873    -0.26200
C925        C  0.70655687  0.59107169  0.29837153     0.35800
C926        C  0.71688148  0.61844628  0.31757763    -0.20300
C927        C  0.74236921  0.64638662  0.31392501    -0.25500
C928        C  0.75852370  0.64594353  0.29224956     0.27200
H929        H  0.71486945  0.56994435  0.26169219     0.12900
N930        N  0.68053661  0.56234518  0.30136555    -0.82800
H931        H  0.75039559  0.66790106  0.32840889     0.17800
N932        N  0.78528180  0.67328346  0.28962267    -0.81400
H933        H  0.67680651  0.54293058  0.28588274     0.33400
H934        H  0.66197777  0.58386017  0.30320604     0.37900
H935        H  0.78933928  0.69231893  0.30518309     0.33400
H936        H  0.80335508  0.65085887  0.28764846     0.30100
H937        H  0.78209745  0.50666111  0.24255892     0.33400
H938        H  0.78525504  0.53589836  0.26835048     0.30100
H939        H  0.76678674  0.71750801  0.20026944     0.37900
H940        H  0.80048197  0.72444021  0.21373393     0.33400
C941        C  0.79376983  0.89539360  0.70320976    -0.20300
C942        C  0.77747819  0.93556761  0.70852365     0.35900
C943        C  0.76065033  0.93806063  0.73004681    -0.26300
C944        C  0.76017085  0.90160262  0.74669664     0.02300
C945        C  0.77770328  0.86231403  0.74178809     0.27100
C946        C  0.79377042  0.85936378  0.71998522    -0.25400
N947        N  0.77630892  0.97230983  0.69126992    -0.82800
H948        H  0.74705747  0.96804848  0.73347032     0.12900
C949        C  0.74094453  0.90427577  0.76892569     0.02300
N950        N  0.77884909  0.82521482  0.75884433    -0.81400
H951        H  0.80579551  0.82818724  0.71572319     0.17800
C952        C  0.72176065  0.86740001  0.77485431    -0.26200
C953        C  0.70641765  0.86565958  0.79703569     0.35800
C954        C  0.70904120  0.90245104  0.81323682    -0.20300
C955        C  0.72581075  0.94124560  0.80645426    -0.25500
C956        C  0.74243056  0.94210835  0.78478466     0.27200
H957        H  0.71966927  0.83893331  0.76250364     0.12900
N958        N  0.68897336  0.82595791  0.80361578    -0.82800
H959        H  0.72786849  0.96943754  0.81897296     0.17800
N960        N  0.76203700  0.98012358  0.77951729    -0.81400
H961        H  0.68944210  0.80161592  0.78988248     0.33400
H962        H  0.66664868  0.83636272  0.80545416     0.37900
H963        H  0.76067629  0.00489050  0.79302461     0.33400
H964        H  0.78404572  0.96787149  0.77968267     0.30100
H965        H  0.79247807  0.79879575  0.75246911     0.33400
H966        H  0.78900661  0.83770227  0.77443719     0.30100
H967        H  0.79783351  0.98645608  0.68993313     0.37900
H968        H  0.76227738  0.99850523  0.69735789     0.33400
C969        C  0.71114482  0.68207794  0.46579263    -0.20300
C970        C  0.69294598  0.67624329  0.48652134     0.35900
C971        C  0.69987594  0.70070234  0.50748927    -0.26300
C972        C  0.72481556  0.72994261  0.50822431     0.02300
C973        C  0.74405306  0.73356458  0.48814328     0.27100
C974        C  0.73685840  0.70991393  0.46703939    -0.25400
N975        N  0.66763927  0.64548482  0.48624632    -0.82800
H976        H  0.68608964  0.69651970  0.52344689     0.12900
C977        C  0.73328146  0.75129219  0.53113872     0.02300
N978        N  0.77135621  0.75991534  0.48956983    -0.81400
H979        H  0.75100793  0.71428332  0.45130748     0.17800
C980        C  0.74836184  0.72404378  0.54781809    -0.26200
C981        C  0.76202433  0.74375914  0.56778332     0.35800
C982        C  0.76092359  0.79162097  0.57099437    -0.20300
C983        C  0.74334535  0.81849782  0.55560907    -0.25500
C984        C  0.72925084  0.79853579  0.53555221     0.27200
H985        H  0.75064296  0.68752001  0.54476173     0.12900
N986        N  0.77740776  0.71515370  0.58467852    -0.82800
H987        H  0.74179551  0.85511060  0.55858884     0.17800
N988        N  0.71085724  0.82570358  0.51985652    -0.81400
H989        H  0.76208148  0.69121963  0.59157576     0.33400
H990        H  0.79415576  0.69727252  0.57547591     0.37900
H991        H  0.70990670  0.85957931  0.52592256     0.33400
H992        H  0.72092597  0.82678235  0.50289730     0.30100
H993        H  0.78357477  0.75747893  0.47352563     0.33400
H994        H  0.76569941  0.79438120  0.49144774     0.30100
H995        H  0.67588900  0.61234089  0.48365396     0.37900
H996        H  0.65665428  0.64530024  0.50288965     0.33400
C997        C  0.29449091  0.62135861  0.30783466    -0.20300
C998        C  0.29483396  0.65861436  0.29166342     0.35900
C999        C  0.27868349  0.65557413  0.27006294    -0.26300
C1000       C  0.26087672  0.61692215  0.26484832     0.02300
C1001       C  0.26124827  0.57912023  0.28087818     0.27100
C1002       C  0.27864433  0.58139541  0.30191363    -0.25400
N1003       N  0.31069730  0.69999380  0.29773853    -0.82800
H1004       H  0.27924916  0.68413057  0.25756597     0.12900
C1005       C  0.24169258  0.61700563  0.24282263     0.02300
N1006       N  0.24277135  0.53955117  0.27642272    -0.81400
H1007       H  0.27775123  0.55337301  0.31475612     0.17800
C1008       C  0.24268798  0.57956372  0.22698429    -0.26200
C1009       C  0.22616154  0.57940831  0.20548620     0.35800
C1010       C  0.20904627  0.61817261  0.19923403    -0.20300
C1011       C  0.20748355  0.65522355  0.21517654    -0.25500
C1012       C  0.22303963  0.65467500  0.23713519     0.27200
H1013       H  0.25723200  0.55090996  0.23099050     0.12900
N1014       N  0.22847785  0.54149625  0.18914160    -0.82800
H1015       H  0.19469047  0.68524959  0.21012340     0.17800
N1016       N  0.22032019  0.69254344  0.25348006    -0.81400
H1017       H  0.24302369  0.51656992  0.19590112     0.33400
H1018       H  0.20732825  0.52606738  0.18811024     0.37900
H1019       H  0.20599901  0.71753222  0.24651022     0.33400
H1020       H  0.21021376  0.68015825  0.26921966     0.30100
H1021       H  0.24557719  0.51495038  0.28993605     0.33400
H1022       H  0.22038773  0.55000863  0.27728425     0.30100
H1023       H  0.33351664  0.69203342  0.29875211     0.37900
H1024       H  0.30844348  0.72450414  0.28412660     0.33400
C1025       C  0.42289522  0.65903369  0.36662814    -0.20300
C1026       C  0.44252178  0.68508358  0.38130255     0.35900
C1027       C  0.47351173  0.68425333  0.37716734    -0.26300
C1028       C  0.48598997  0.65942404  0.35809992     0.02300
C1029       C  0.46644360  0.63634174  0.34214477     0.27100
C1030       C  0.43518267  0.63586239  0.34674265    -0.25400
N1031       N  0.43137676  0.71171913  0.40099166    -0.82800
H1032       H  0.48803013  0.70193096  0.38970430     0.12900
C1033       C  0.51944664  0.65460754  0.35691597     0.02300
N1034       N  0.47844158  0.61308556  0.32152379    -0.81400
H1035       H  0.42049317  0.61657105  0.33501825     0.17800
C1036       C  0.53200656  0.61058168  0.35590484    -0.26200
C1037       C  0.56297748  0.60347481  0.35914494     0.35800
C1038       C  0.58196271  0.64123577  0.36440297    -0.20300
C1039       C  0.56963688  0.68559250  0.36389702    -0.25500
C1040       C  0.53880035  0.69270581  0.35990324     0.27200
H1041       H  0.51736011  0.58117153  0.35373960     0.12900
N1042       N  0.57476299  0.55770429  0.35824044    -0.82800
H1043       H  0.58394968  0.71492561  0.36737087     0.17800
N1044       N  0.52691038  0.73845476  0.35951420    -0.81400
H1045       H  0.55764488  0.53384504  0.35522097     0.33400
H1046       H  0.58903494  0.55601014  0.34329379     0.37900
H1047       H  0.54396484  0.76262845  0.36219017     0.33400
H1048       H  0.51837699  0.74436711  0.34231414     0.30100
H1049       H  0.46121295  0.59789174  0.31158988     0.33400
H1050       H  0.48835702  0.63785191  0.31038760     0.30100
H1051       H  0.44139958  0.69993215  0.41679071     0.37900
H1052       H  0.43792617  0.74583795  0.39829053     0.33400
C1053       C  0.21646887  0.89197227  0.69685665    -0.20300
C1054       C  0.23971852  0.86175612  0.70370738     0.35900
C1055       C  0.25205563  0.86437008  0.72679220    -0.26300
C1056       C  0.24166759  0.89635208  0.74351268     0.02300
C1057       C  0.21740856  0.92500646  0.73739616     0.27100
C1058       C  0.20506682  0.92266813  0.71405577    -0.25400
N1059       N  0.25091578  0.82808528  0.68729127    -0.82800
H1060       H  0.27021687  0.84155023  0.73161530     0.12900
C1061       C  0.25651957  0.89855878  0.76736201     0.02300
N1062       N  0.20558319  0.95641743  0.75484210    -0.81400
H1063       H  0.18713422  0.94574970  0.70908909     0.17800
C1064       C  0.27542040  0.93570337  0.77294965    -0.26200
C1065       C  0.29122582  0.93720877  0.79490545     0.35800
C1066       C  0.28801040  0.90072224  0.81146249    -0.20300
C1067       C  0.26917652  0.86358165  0.80563996    -0.25500
C1068       C  0.25333029  0.86223558  0.78389985     0.27200
H1069       H  0.27783845  0.96350538  0.76011035     0.12900
N1070       N  0.30918645  0.97653119  0.80090544    -0.82800
H1071       H  0.26615771  0.83594032  0.81850405     0.17800
N1072       N  0.23362133  0.82443936  0.77865915    -0.81400
H1073       H  0.30808112  0.00118273  0.78724590     0.33400
H1074       H  0.33152035  0.96589130  0.80166005     0.37900
H1075       H  0.23380751  0.80045805  0.79266376     0.33400
H1076       H  0.21177446  0.83730180  0.77781518     0.30100
H1077       H  0.18781819  0.97503975  0.74754909     0.33400
H1078       H  0.19659831  0.93694746  0.76899858     0.30100
H1079       H  0.27392632  0.83376122  0.68494488     0.37900
H1080       H  0.24800757  0.79572192  0.69511332     0.33400
C1081       C  0.92322693  0.85203791  0.64389243    -0.20300
C1082       C  0.94254852  0.82035652  0.63231381     0.35900
C1083       C  0.97375507  0.82263071  0.63623050    -0.26300
C1084       C  0.98645266  0.85479414  0.65197246     0.02300
C1085       C  0.96704474  0.88409064  0.66491425     0.27100
C1086       C  0.93582511  0.88264688  0.66062089    -0.25400
N1087       N  0.93064705  0.78652656  0.61615221    -0.82800
H1088       H  0.98841179  0.80008533  0.62620547     0.12900
C1089       C  0.02001664  0.86018358  0.65274707     0.02300
N1090       N  0.97917855  0.91576064  0.68210890    -0.81400
H1091       H  0.92138971  0.90659608  0.66992261     0.17800
C1092       C  0.03269241  0.90358211  0.64841216    -0.26200
C1093       C  0.06390998  0.90985792  0.64588058     0.35800
C1094       C  0.08330039  0.87142564  0.64690984    -0.20300
C1095       C  0.07071106  0.82817482  0.65219133    -0.25500
C1096       C  0.03945194  0.82230791  0.65551609     0.27200
H1097       H  0.01799947  0.93272937  0.64606327     0.12900
N1098       N  0.07563313  0.95494105  0.64093813    -0.82800
H1099       H  0.08527450  0.79860633  0.65331188     0.17800
N1100       N  0.02732986  0.77789903  0.66137765    -0.81400
H1101       H  0.05826248  0.97867415  0.63912899     0.33400
H1102       H  0.08788195  0.96516023  0.65600135     0.37900
H1103       H  0.04447458  0.75370100  0.66275164     0.33400
H1104       H  0.01742919  0.78018990  0.67840761     0.30100
H1105       H  0.96206654  0.93505111  0.69000490     0.33400
H1106       H  0.98890522  0.89651297  0.69588831     0.30100
H1107       H  0.91726332  0.76414105  0.62629139     0.37900
H1108       H  0.94786169  0.76670412  0.60875714     0.33400
C1109       C  0.21526298  0.82911348  0.54776350    -0.20300
C1110       C  0.24249585  0.80560395  0.54406271     0.35900
C1111       C  0.24910784  0.78783315  0.52136374    -0.26300
C1112       C  0.22898968  0.79265971  0.50230233     0.02300
C1113       C  0.20220035  0.81711840  0.50548791     0.27100
C1114       C  0.19555981  0.83520966  0.52824579    -0.25400
N1115       N  0.26302605  0.79805611  0.56340987    -0.82800
H1116       H  0.26988893  0.76931143  0.51867930     0.12900
C1117       C  0.23714888  0.77205105  0.47912961     0.02300
N1118       N  0.18176940  0.82275413  0.48577956    -0.81400
H1119       H  0.17463843  0.85336977  0.53083238     0.17800
C1120       C  0.22872904  0.72635980  0.47478044    -0.26200
C1121       C  0.24167459  0.70147119  0.45577700     0.35800
C1122       C  0.26358551  0.72296685  0.44128773    -0.20300
C1123       C  0.27029458  0.76962208  0.44475602    -0.25500
C1124       C  0.25733373  0.79449965  0.46340278     0.27200
H1125       H  0.21323910  0.70946436  0.48702572     0.12900
N1126       N  0.23422381  0.65399454  0.45225709    -0.82800
H1127       H  0.28656497  0.78674002  0.43323552     0.17800
N1128       N  0.26631427  0.84159369  0.46645664    -0.81400
H1129       H  0.21880411  0.64296338  0.46527998     0.33400
H1130       H  0.22331190  0.65134006  0.43571883     0.37900
H1131       H  0.26000545  0.85946589  0.45097731     0.33400
H1132       H  0.25496174  0.85710024  0.48069932     0.30100
H1133       H  0.16286843  0.84118876  0.49124676     0.33400
H1134       H  0.19258163  0.84270797  0.47269651     0.30100
H1135       H  0.26578133  0.76270370  0.56554007     0.37900
H1136       H  0.28377658  0.81222716  0.55852671     0.33400
C1137       C  0.28886625  0.13077268  0.19631945    -0.20300
C1138       C  0.27101878  0.16773904  0.20433848     0.35900
C1139       C  0.25800718  0.16614674  0.22739951    -0.26300
C1140       C  0.26238023  0.12845179  0.24266024     0.02300
C1141       C  0.28117207  0.09238215  0.23511490     0.27100
C1142       C  0.29430977  0.09392446  0.21199656    -0.25400
N1143       N  0.26599322  0.20663480  0.18892612    -0.82800
H1144       H  0.24399540  0.19416107  0.23342790     0.12900
C1145       C  0.24743889  0.12787392  0.26664987     0.02300
N1146       N  0.28656117  0.05420900  0.25088936    -0.81400
H1147       H  0.30789187  0.06551378  0.20586212     0.17800
C1148       C  0.22414593  0.09648259  0.27147489    -0.26200
C1149       C  0.20930118  0.09567396  0.29398892     0.35800
C1150       C  0.21825009  0.12669405  0.31212079    -0.20300
C1151       C  0.24119652  0.15866846  0.30684737    -0.25500
C1152       C  0.25593083  0.15936504  0.28449495     0.27200
H1153       H  0.21753902  0.07257709  0.25757645     0.12900
N1154       N  0.18604733  0.06252553  0.29864971    -0.82800
H1155       H  0.24821103  0.18286588  0.32048185     0.17800
N1156       N  0.27990188  0.19144525  0.27995857    -0.81400
H1157       H  0.18325160  0.04095285  0.28383460     0.33400
H1158       H  0.16592580  0.08042943  0.30057418     0.37900
H1159       H  0.28338901  0.21243268  0.29491128     0.33400
H1160       H  0.29958282  0.17260531  0.27756299     0.30100
H1161       H  0.30070972  0.03043407  0.24262677     0.33400
H1162       H  0.29805629  0.06664925  0.26588140     0.30100
H1163       H  0.25228026  0.23069433  0.19742903     0.37900
H1164       H  0.28671702  0.22267035  0.18598174     0.33400
C1165       C  0.13729340  0.05454023  0.44486313    -0.20300
C1166       C  0.12046653  0.07607952  0.46334891     0.35900
C1167       C  0.11892121  0.05642931  0.48644570    -0.26300
C1168       C  0.13345194  0.01521514  0.49173173     0.02300
C1169       C  0.14871006  0.99192335  0.47317575     0.27100
C1170       C  0.15050307  0.01176751  0.44997412    -0.25400
N1171       N  0.10546178  0.11865609  0.45909581    -0.82800
H1172       H  0.10687540  0.07417609  0.50056843     0.12900
C1173       C  0.13425706  0.99865593  0.51712450     0.02300
N1174       N  0.16287296  0.94872303  0.47811414    -0.81400
H1175       H  0.16327514  0.99451213  0.43611504     0.17800
C1176       C  0.11487779  0.96349692  0.52471431    -0.26200
C1177       C  0.11594379  0.94614509  0.54841678     0.35800
C1178       C  0.13744470  0.96367001  0.56482854    -0.20300
C1179       C  0.15580980  0.00045264  0.55737421    -0.25500
C1180       C  0.15444092  0.01801837  0.53375286     0.27200
H1181       H  0.09898122  0.94936899  0.51201638     0.12900
N1182       N  0.09547327  0.91044332  0.55571430    -0.82800
H1183       H  0.17227619  0.01430690  0.56967073     0.17800
N1184       N  0.17390699  0.05495064  0.52639584    -0.81400
H1185       H  0.08139704  0.90119062  0.54151748     0.33400
H1186       H  0.08166464  0.92384835  0.56917949     0.37900
H1187       H  0.18730239  0.06564383  0.54071590     0.33400
H1188       H  0.18846898  0.04225370  0.51323449     0.30100
H1189       H  0.17301430  0.93582645  0.46259267     0.33400
H1190       H  0.18009850  0.95463069  0.49046037     0.30100
H1191       H  0.11397588  0.14297258  0.47108729     0.37900
H1192       H  0.08266567  0.11400053  0.46288089     0.33400
C1193       C  0.25414896  0.02688632  0.39064999    -0.20300
C1194       C  0.25165822  0.99255608  0.40838217     0.35900
C1195       C  0.26722665  0.95106398  0.40531549    -0.26300
C1196       C  0.28488997  0.94352311  0.38473377     0.02300
C1197       C  0.28872768  0.97896839  0.36774594     0.27100
C1198       C  0.27322084  0.02039972  0.37084853    -0.25400
N1199       N  0.23186633  0.99895231  0.42854605    -0.82800
H1200       H  0.26436931  0.92363457  0.41831536     0.12900
C1201       C  0.29650014  0.89683747  0.37994709     0.02300
N1202       N  0.30730356  0.97183269  0.34692865    -0.81400
H1203       H  0.27456135  0.04668515  0.35705292     0.17800
C1204       C  0.28168826  0.87003057  0.36270141    -0.26200
C1205       C  0.28898068  0.82359534  0.35938151     0.35800
C1206       C  0.31165834  0.80366878  0.37355327    -0.20300
C1207       C  0.32786236  0.83141899  0.38958455    -0.25500
C1208       C  0.32053006  0.87765820  0.39304911     0.27200
H1209       H  0.26353639  0.88500785  0.35246147     0.12900
N1210       N  0.27287867  0.79625010  0.34222901    -0.82800
H1211       H  0.34516904  0.81638623  0.40070772     0.17800
N1212       N  0.33735007  0.90341804  0.41044931    -0.81400
H1213       H  0.25681924  0.81600385  0.33334775     0.33400
H1214       H  0.28825698  0.78560027  0.32916330     0.37900
H1215       H  0.35965425  0.90446611  0.40458248     0.33400
H1216       H  0.33027963  0.93743140  0.41132656     0.30100
H1217       H  0.30751384  0.00111232  0.33599992     0.33400
H1218       H  0.32927342  0.96722418  0.35291539     0.30100
H1219       H  0.24020741  0.02636222  0.43859054     0.37900
H1220       H  0.23216718  0.97014879  0.43981208     0.33400
C1221       C  0.19790936  0.29528572  0.38051570    -0.20300
C1222       C  0.22052004  0.31228282  0.36489040     0.35900
C1223       C  0.23051106  0.35787112  0.36695258    -0.26300
C1224       C  0.21832966  0.38739530  0.38420785     0.02300
C1225       C  0.19466269  0.37167940  0.39899726     0.27100
C1226       C  0.18458384  0.32589916  0.39693446    -0.25400
N1227       N  0.23383698  0.28325691  0.34710853    -0.82800
H1228       H  0.24840822  0.37006120  0.35529858     0.12900
C1229       C  0.23141306  0.43413637  0.38681007     0.02300
N1230       N  0.18124668  0.40204831  0.41622976    -0.81400
H1231       H  0.16725307  0.31356116  0.40906380     0.17800
C1232       C  0.22029167  0.47031162  0.37283603    -0.26200
C1233       C  0.23444809  0.51371205  0.37262068     0.35800
C1234       C  0.26056631  0.52088828  0.38656905    -0.20300
C1235       C  0.27085513  0.48486724  0.40128215    -0.25500
C1236       C  0.25656848  0.44170835  0.40156067     0.27200
H1237       H  0.20099191  0.46417498  0.36148909     0.12900
N1238       N  0.22333816  0.54943577  0.35723330    -0.82800
H1239       H  0.29071823  0.48999382  0.41213800     0.17800
N1240       N  0.26825565  0.40492232  0.41598185    -0.81400
H1241       H  0.20527053  0.53757462  0.34704746     0.33400
H1242       H  0.21483234  0.57527021  0.36830117     0.37900
H1243       H  0.28723001  0.41576822  0.42541680     0.33400
H1244       H  0.25204353  0.39643434  0.42889420     0.30100
H1245       H  0.16389268  0.38540186  0.42552987     0.33400
H1246       H  0.19753160  0.41031017  0.42898141     0.30100
H1247       H  0.25691057  0.28181312  0.35033358     0.37900
H1248       H  0.23063394  0.29836972  0.33025044     0.33400
C1249       C  0.29968971  0.41168332  0.69837166    -0.20300
C1250       C  0.28430961  0.45254754  0.70375344     0.35900
C1251       C  0.26810184  0.45622007  0.72543221    -0.26300
C1252       C  0.26711909  0.41969891  0.74196237     0.02300
C1253       C  0.28443649  0.38015900  0.73737025     0.27100
C1254       C  0.30013340  0.37629272  0.71548472    -0.25400
N1255       N  0.28329270  0.48907072  0.68650479    -0.82800
H1256       H  0.25506291  0.48682064  0.72879864     0.12900
C1257       C  0.24689644  0.42175165  0.76340533     0.02300
N1258       N  0.28539651  0.34361648  0.75475673    -0.81400
H1259       H  0.31186043  0.34479957  0.71133125     0.17800
C1260       C  0.22572021  0.38648529  0.76706562    -0.26200
C1261       C  0.20902918  0.38353856  0.78847878     0.35800
C1262       C  0.21265390  0.41706608  0.80630999    -0.20300
C1263       C  0.23186040  0.45447522  0.80189509    -0.25500
C1264       C  0.24943658  0.45681546  0.78076458     0.27200
H1265       H  0.22302548  0.35999362  0.75361733     0.12900
N1266       N  0.18889948  0.34582309  0.79237715    -0.82800
H1267       H  0.23481657  0.48009265  0.81575591     0.17800
N1268       N  0.27089137  0.49325320  0.77746753    -0.81400
H1269       H  0.17307423  0.34596268  0.77855289     0.33400
H1270       H  0.20119427  0.31546962  0.79111572     0.37900
H1271       H  0.27009240  0.51604439  0.79195812     0.33400
H1272       H  0.29225463  0.47869266  0.77758327     0.30100
H1273       H  0.29900300  0.31693623  0.74863160     0.33400
H1274       H  0.29556187  0.35654728  0.77024023     0.30100
H1275       H  0.26081943  0.49511242  0.68230484     0.37900
H1276       H  0.29184199  0.51862232  0.69461951     0.33400
C1277       C  0.31433732  0.21948143  0.63704510    -0.20300
C1278       C  0.28926756  0.20115226  0.64929981     0.35900
C1279       C  0.28214630  0.15454036  0.64702753    -0.26300
C1280       C  0.29955173  0.12524533  0.63271740     0.02300
C1281       C  0.32569546  0.14262848  0.62153166     0.27100
C1282       C  0.33292448  0.18957714  0.62389636    -0.25400
N1283       N  0.27045743  0.23000243  0.66363407    -0.82800
H1284       H  0.26209298  0.14148443  0.65580980     0.12900
C1285       C  0.28857023  0.07747313  0.62894043     0.02300
N1286       N  0.34433649  0.11287227  0.60742362    -0.81400
H1287       H  0.35216472  0.20329340  0.61427766     0.17800
C1288       C  0.28014141  0.06296376  0.60579176    -0.26200
C1289       C  0.26287661  0.02270109  0.60255907     0.35800
C1290       C  0.25392816  0.99701945  0.62288128    -0.20300
C1291       C  0.26442045  0.00960653  0.64567596    -0.25500
C1292       C  0.28200216  0.04913949  0.64886485     0.27200
H1293       H  0.28532459  0.08459938  0.59044390     0.12900
N1294       N  0.25319307  0.00916915  0.57900440    -0.82800
H1295       H  0.25796279  0.98921365  0.66120553     0.17800
N1296       N  0.29224008  0.06180079  0.67241540    -0.81400
H1297       H  0.26168034  0.03179285  0.56599429     0.33400
H1298       H  0.22984622  0.01198154  0.57848347     0.37900
H1299       H  0.28534854  0.03754697  0.68519178     0.33400
H1300       H  0.31569518  0.06112520  0.67211209     0.30100
H1301       H  0.36258988  0.13101475  0.60028413     0.33400
H1302       H  0.35317751  0.08811683  0.61902734     0.30100
H1303       H  0.26998661  0.21677896  0.68112333     0.37900
H1304       H  0.24868807  0.22831789  0.65674149     0.33400
C1305       C  0.20246236  0.72598878  0.62598546    -0.20300
C1306       C  0.18676585  0.69202353  0.61282619     0.35900
C1307       C  0.19727154  0.64658157  0.61243371    -0.26300
C1308       C  0.22355757  0.63426408  0.62449606     0.02300
C1309       C  0.23907706  0.66752434  0.63797549     0.27100
C1310       C  0.22828605  0.71279586  0.63876972    -0.25400
N1311       N  0.16083540  0.70363563  0.59900097    -0.82800
H1312       H  0.18545661  0.62114280  0.60187609     0.12900
C1313       C  0.23605763  0.58744805  0.62153271     0.02300
N1314       N  0.26628861  0.65540650  0.65020782    -0.81400
H1315       H  0.24082932  0.73823032  0.64876584     0.17800
C1316       C  0.26061858  0.58146285  0.60611707    -0.26200
C1317       C  0.27515574  0.53892409  0.60430665     0.35800
C1318       C  0.26535249  0.50158320  0.61875267    -0.20300
C1319       C  0.23940496  0.50691343  0.63297677    -0.25500
C1320       C  0.22474635  0.54961545  0.63458677     0.27200
H1321       H  0.26880021  0.61049138  0.59575016     0.12900
N1322       N  0.30014108  0.53381022  0.58810056    -0.82800
H1323       H  0.23143368  0.47842312  0.64382623     0.17800
N1324       N  0.19896274  0.55508001  0.64988846    -0.81400
H1325       H  0.30459887  0.56451215  0.57898744     0.33400
H1326       H  0.29393887  0.50985150  0.57506175     0.37900
H1327       H  0.19338797  0.52398406  0.65820419     0.33400
H1328       H  0.20484986  0.57779348  0.66361159     0.30100
H1329       H  0.27532988  0.68383789  0.65899449     0.33400
H1330       H  0.26072388  0.63141243  0.66355486     0.30100
H1331       H  0.16518412  0.69552879  0.58101504     0.37900
H1332       H  0.14294332  0.68323947  0.60494075     0.33400
C1333       C  0.36356985  0.43931890  0.55495213    -0.20300
C1334       C  0.35273609  0.42129663  0.53291929     0.35900
C1335       C  0.35564640  0.44687691  0.51163224    -0.26300
C1336       C  0.36892053  0.49037592  0.51169174     0.02300
C1337       C  0.38077895  0.50795141  0.53324737     0.27100
C1338       C  0.37795230  0.48234455  0.55467689    -0.25400
N1339       N  0.33765888  0.37782583  0.53206303    -0.82800
H1340       H  0.34625985  0.43349754  0.49511428     0.12900
C1341       C  0.36677418  0.51935600  0.48982242     0.02300
N1342       N  0.39507399  0.55220784  0.53330039    -0.81400
H1343       H  0.38651257  0.49649660  0.57128486     0.17800
C1344       C  0.34651857  0.55580509  0.49002736    -0.26200
C1345       C  0.34216305  0.58311303  0.46970535     0.37400
C1346       C  0.35877389  0.57438125  0.44833514    -0.20300
C1347       C  0.37892998  0.53737064  0.44810138    -0.25500
C1348       C  0.38310237  0.50975826  0.46868670     0.27200
H1349       H  0.33342952  0.56252913  0.50609864     0.12900
N1350       N  0.31971099  0.61806620  0.47120176    -0.82800
H1351       H  0.39149123  0.53002700  0.43185979     0.17800
N1352       N  0.40367435  0.47197763  0.46823444    -0.81400
H1353       H  0.30405542  0.61309584  0.45747908     0.33400
H1354       H  0.32987658  0.65020625  0.46932927     0.37900
H1355       H  0.41383966  0.46937328  0.45130848     0.33400
H1356       H  0.42078050  0.47917960  0.48046131     0.30100
H1357       H  0.40253193  0.56038289  0.55055502     0.33400
H1358       H  0.41419132  0.55006349  0.52239366     0.30100
H1359       H  0.31602921  0.38300434  0.52538118     0.37900
H1360       H  0.34918902  0.35682051  0.51999735     0.33400
C1361       C  0.21466444  0.19871026  0.45934876    -0.20300
C1362       C  0.24551989  0.20328202  0.46479360     0.35900
C1363       C  0.25397159  0.22295091  0.48672465    -0.26300
C1364       C  0.23236696  0.23777382  0.50328473     0.02300
C1365       C  0.20172040  0.23240546  0.49824814     0.27100
C1366       C  0.19313248  0.21288356  0.47633029    -0.25400
N1367       N  0.26814953  0.18831114  0.44810752    -0.82800
H1368       H  0.27755219  0.22709244  0.49092910     0.12900
C1369       C  0.24244015  0.25868737  0.52592215     0.02300
N1370       N  0.17953659  0.24705511  0.51537618    -0.81400
H1371       H  0.16945035  0.20969144  0.47232634     0.17800
C1372       C  0.23710300  0.30542509  0.53011730    -0.26200
C1373       C  0.24953485  0.32746620  0.55021452     0.35800
C1374       C  0.26711122  0.30175917  0.56626632    -0.20300
C1375       C  0.27096588  0.25452502  0.56266460    -0.25500
C1376       C  0.25887522  0.23271228  0.54258825     0.27200
H1377       H  0.22437078  0.32502455  0.51712663     0.12900
N1378       N  0.24557952  0.37587097  0.55374436    -0.82800
H1379       H  0.28428818  0.23483243  0.57525705     0.17800
N1380       N  0.26383198  0.18460482  0.53866469    -0.81400
H1381       H  0.23213059  0.38962500  0.54018153     0.33400
H1382       H  0.26662069  0.39157633  0.55204644     0.37900
H1383       H  0.27672031  0.17063881  0.55252531     0.33400
H1384       H  0.24296000  0.16815188  0.53937627     0.30100
H1385       H  0.15791380  0.24105289  0.50882214     0.33400
H1386       H  0.18184075  0.22673334  0.53076253     0.30100
H1387       H  0.26634255  0.15267494  0.44670197     0.37900
H1388       H  0.28963025  0.19516801  0.45473127     0.33400
C1389       C  0.70956890  0.11020747  0.20557958    -0.20300
C1390       C  0.72558748  0.07027133  0.21176991     0.35900
C1391       C  0.74051836  0.06812697  0.23400511    -0.26300
C1392       C  0.73922197  0.10473679  0.25032594     0.02300
C1393       C  0.72121023  0.14311504  0.24481531     0.27100
C1394       C  0.70713752  0.14589745  0.22227273    -0.25400
N1395       N  0.72852534  0.03360701  0.19471323    -0.82800
H1396       H  0.75429857  0.03866167  0.23816025     0.12900
C1397       C  0.75831318  0.10411166  0.27230295     0.02300
N1398       N  0.71782415  0.17949679  0.26198189    -0.81400
H1399       H  0.69485837  0.17653362  0.21741607     0.17800
C1400       C  0.77776252  0.14128288  0.27662553    -0.26200
C1401       C  0.79467994  0.14390462  0.29785345     0.35800
C1402       C  0.79295997  0.10792368  0.31468736    -0.20300
C1403       C  0.77495040  0.06948969  0.30984517    -0.25500
C1404       C  0.75716899  0.06752142  0.28900179     0.27200
H1405       H  0.77920308  0.16891324  0.26359759     0.12900
N1406       N  0.81308472  0.18336370  0.30269968    -0.82800
H1407       H  0.77319833  0.04238756  0.32317446     0.17800
N1408       N  0.73705053  0.02956948  0.28527278    -0.81400
H1409       H  0.81177280  0.20700932  0.28858177     0.33400
H1410       H  0.83536755  0.17237335  0.30339089     0.37900
H1411       H  0.73883766  0.00573723  0.29927644     0.33400
H1412       H  0.71516309  0.04227388  0.28592164     0.30100
H1413       H  0.70395797  0.20525048  0.25514792     0.33400
H1414       H  0.70683804  0.16584752  0.27703223     0.30100
H1415       H  0.70727030  0.01913421  0.19233285     0.37900
H1416       H  0.74214173  0.00758659  0.20159359     0.33400
C1417       C  0.81135876  0.28502778  0.38273452    -0.20300
C1418       C  0.82756240  0.31785843  0.39623367     0.35900
C1419       C  0.81768200  0.36375543  0.39678133    -0.26300
C1420       C  0.79212986  0.37761516  0.38405425     0.02300
C1421       C  0.77697022  0.34541540  0.36953668     0.27100
C1422       C  0.78675158  0.29963507  0.36902557    -0.25400
N1423       N  0.85273143  0.30407209  0.41057997    -0.82800
H1424       H  0.82941965  0.38862353  0.40774773     0.12900
C1425       C  0.77996270  0.42481492  0.38724205     0.02300
N1426       N  0.75090573  0.35891094  0.35614091    -0.81400
H1427       H  0.77427039  0.27469120  0.35863350     0.17800
C1428       C  0.77680141  0.45340039  0.36709678    -0.26200
C1429       C  0.76079890  0.49475653  0.36855584     0.35800
C1430       C  0.74812848  0.50825231  0.39076411    -0.20300
C1431       C  0.75314920  0.48150403  0.41131378    -0.25500
C1432       C  0.76879009  0.43963067  0.40974766     0.27200
H1433       H  0.78575675  0.44236107  0.34993377     0.12900
N1434       N  0.75721388  0.52300619  0.34750657    -0.82800
H1435       H  0.74330926  0.49190160  0.42827772     0.17800
N1436       N  0.77221473  0.41114982  0.43068745    -0.81400
H1437       H  0.76939071  0.50967776  0.33305987     0.33400
H1438       H  0.73466502  0.52156728  0.34245638     0.37900
H1439       H  0.76283488  0.42694035  0.44577322     0.33400
H1440       H  0.75994449  0.38100967  0.42786573     0.30100
H1441       H  0.74241869  0.33126727  0.34630574     0.33400
H1442       H  0.73424639  0.36800788  0.36848735     0.30100
H1443       H  0.86993712  0.29464491  0.39880252     0.37900
H1444       H  0.86096499  0.33177291  0.42050271     0.33400
C1445       C  0.76766066  0.99950649  0.38831344    -0.20300
C1446       C  0.73632380  0.99872930  0.38398921     0.35900
C1447       C  0.72114826  0.95630302  0.38279184    -0.26300
C1448       C  0.73659134  0.91492630  0.38568377     0.02300
C1449       C  0.76761116  0.91553100  0.39018569     0.27100
C1450       C  0.78276799  0.95761902  0.39149071    -0.25400
N1451       N  0.72003106  0.04064779  0.38053607    -0.82800
H1452       H  0.69721601  0.95538209  0.37947089     0.12900
C1453       C  0.72030325  0.87068142  0.38456200     0.02300
N1454       N  0.78360829  0.87320466  0.39330996    -0.81400
H1455       H  0.80672106  0.95744778  0.39470043     0.17800
C1456       C  0.72584022  0.84109792  0.36524727    -0.26200
C1457       C  0.71501738  0.79576870  0.36550558     0.35800
C1458       C  0.69825826  0.77993837  0.38551462    -0.20300
C1459       C  0.69098221  0.81071342  0.40402192    -0.25500
C1460       C  0.70222398  0.85580879  0.40390568     0.27200
H1461       H  0.73969966  0.85293816  0.35040644     0.12900
N1462       N  0.72171209  0.76540678  0.34590397    -0.82800
H1463       H  0.67829777  0.79863499  0.41946709     0.17800
N1464       N  0.69663955  0.88582346  0.42387268    -0.81400
H1465       H  0.73443342  0.78228451  0.33272728     0.33400
H1466       H  0.70137561  0.75628394  0.33788178     0.37900
H1467       H  0.68294878  0.86962301  0.43667076     0.33400
H1468       H  0.71716379  0.89222223  0.43227384     0.30100
H1469       H  0.80642842  0.87948702  0.39616937     0.33400
H1470       H  0.77540702  0.85742323  0.40892273     0.30100
H1471       H  0.72019121  0.05827344  0.39686400     0.37900
H1472       H  0.69751771  0.03379210  0.37663994     0.33400
C1473       C  0.87311264  0.04951480  0.44909442    -0.20300
C1474       C  0.87075362  0.00108372  0.44867239     0.35900
C1475       C  0.87166927  0.97626659  0.47049010    -0.26300
C1476       C  0.87479506  0.99865432  0.49270775     0.02300
C1477       C  0.87905612  0.04658333  0.49295147     0.27100
C1478       C  0.87856653  0.07126992  0.47121106    -0.25400
N1479       N  0.86570744  0.97740069  0.42641525    -0.82800
H1480       H  0.86879754  0.93935866  0.47028765     0.12900
C1481       C  0.87071536  0.97249947  0.51565186     0.02300
N1482       N  0.88233486  0.07037147  0.51539989    -0.81400
H1483       H  0.88091097  0.10823802  0.47173122     0.17800
C1484       C  0.89300435  0.97381885  0.53350467    -0.26200
C1485       C  0.88850496  0.95279272  0.55615498     0.35800
C1486       C  0.86143648  0.92909439  0.56079988    -0.20300
C1487       C  0.83954376  0.92684105  0.54273332    -0.25500
C1488       C  0.84364383  0.94880660  0.52042951     0.27200
H1489       H  0.91384265  0.99180747  0.52981501     0.12900
N1490       N  0.91166221  0.95411018  0.57404007    -0.82800
H1491       H  0.81873493  0.90861233  0.54628705     0.17800
N1492       N  0.82011475  0.94800363  0.50280829    -0.81400
H1493       H  0.93068084  0.97099227  0.56734043     0.33400
H1494       H  0.90380690  0.97392197  0.58835090     0.37900
H1495       H  0.80173547  0.92898850  0.50906676     0.33400
H1496       H  0.81262471  0.98167138  0.50050599     0.30100
H1497       H  0.88532706  0.10555983  0.51247996     0.33400
H1498       H  0.86223807  0.06663095  0.52495092     0.30100
H1499       H  0.88516886  0.98097732  0.41599471     0.37900
H1500       H  0.86286981  0.94226453  0.42943711     0.33400
C1501       C  0.92546256  0.14291849  0.36558933    -0.20300
C1502       C  0.93758777  0.11791187  0.34602472     0.35900
C1503       C  0.96885428  0.11894309  0.34173543    -0.26300
C1504       C  0.98821949  0.14463987  0.35639039     0.02300
C1505       C  0.97593531  0.17127404  0.37509708     0.27100
C1506       C  0.94487541  0.17058936  0.37924074    -0.25400
N1507       N  0.91842573  0.09065538  0.33097732    -0.82800
H1508       H  0.97827521  0.09891474  0.32719938     0.12900
C1509       C  0.02146341  0.14140082  0.35351581     0.02300
N1510       N  0.99524629  0.19751009  0.39055602    -0.81400
H1511       H  0.93603939  0.19030497  0.39411899     0.17800
C1512       C  0.03849507  0.18177049  0.35084219    -0.26200
C1513       C  0.06983835  0.18177878  0.35396596     0.35800
C1514       C  0.08457483  0.14033391  0.35956169    -0.20300
C1515       C  0.06785848  0.09922970  0.35954572    -0.25500
C1516       C  0.03646401  0.09935557  0.35688379     0.27200
H1517       H  0.02701278  0.21387713  0.34764218     0.12900
N1518       N  0.08653942  0.22392215  0.35225390    -0.82800
H1519       H  0.07896889  0.06709725  0.36342902     0.17800
N1520       N  0.01967854  0.05729029  0.35898281    -0.81400
H1521       H  0.07229520  0.25131869  0.34829604     0.33400
H1522       H  0.10131305  0.22093173  0.33771386     0.37900
H1523       H  0.03409402  0.02941514  0.36123449     0.33400
H1524       H  0.00665948  0.05919088  0.37461648     0.30100
H1525       H  0.98273826  0.21550256  0.40332821     0.33400
H1526       H  0.00860851  0.17440464  0.40009034     0.30100
H1527       H  0.90431999  0.11312046  0.32173108     0.37900
H1528       H  0.93100215  0.07351418  0.31791367     0.33400
C1529       C  0.71936338  0.38833236  0.70044400    -0.20300
C1530       C  0.71212112  0.42349470  0.71687149     0.35900
C1531       C  0.72734605  0.42572501  0.73909085    -0.26300
C1532       C  0.74965615  0.39372379  0.74500400     0.02300
C1533       C  0.75693096  0.35891948  0.72858202     0.27100
C1534       C  0.74155692  0.35628197  0.70671244    -0.25400
N1535       N  0.69047098  0.45778142  0.71055098    -0.82800
H1536       H  0.72181276  0.45238412  0.75185930     0.12900
C1537       C  0.76431664  0.39473329  0.76892064     0.02300
N1538       N  0.78027476  0.32670062  0.73411534    -0.81400
H1539       H  0.74751096  0.32946295  0.69414191     0.17800
C1540       C  0.75860492  0.35850707  0.78485514    -0.26200
C1541       C  0.77231100  0.35680063  0.80740645     0.35800
C1542       C  0.79212804  0.39210977  0.81451554    -0.20300
C1543       C  0.79868795  0.42778591  0.79826677    -0.25500
C1544       C  0.78494320  0.42937403  0.77542514     0.27200
H1545       H  0.74326496  0.33131492  0.77974714     0.12900
N1546       N  0.76605408  0.31888886  0.82309890    -0.82800
H1547       H  0.81367797  0.45516445  0.80369546     0.17800
N1548       N  0.79168674  0.46594928  0.75888067    -0.81400
H1549       H  0.77205892  0.28874631  0.81420688     0.33400
H1550       H  0.74292805  0.31785691  0.82631118     0.37900
H1551       H  0.80720014  0.48868804  0.76640350     0.33400
H1552       H  0.80210658  0.45149745  0.74384877     0.30100
H1553       H  0.78295260  0.30318590  0.72014208     0.33400
H1554       H  0.80043193  0.34506642  0.73526292     0.30100
H1555       H  0.66964009  0.44183179  0.70969845     0.37900
H1556       H  0.68889144  0.48256401  0.72421434     0.33400
C1557       C  0.63904569  0.44741513  0.56727149    -0.20300
C1558       C  0.64410300  0.49485505  0.56343481     0.35900
C1559       C  0.64125739  0.51338078  0.54005518    -0.26300
C1560       C  0.63265898  0.48590017  0.52049774     0.02300
C1561       C  0.62562919  0.43934300  0.52467418     0.27100
C1562       C  0.62910487  0.42063713  0.54781714    -0.25400
N1563       N  0.65239131  0.52400746  0.58311997    -0.82800
H1564       H  0.64647178  0.54923886  0.53695718     0.12900
C1565       C  0.63266642  0.50529609  0.49553904     0.02300
N1566       N  0.61533865  0.41102772  0.50523944    -0.81400
H1567       H  0.62483965  0.38436632  0.55041944     0.17800
C1568       C  0.64983345  0.48379376  0.47763628    -0.26200
C1569       C  0.65131716  0.50107528  0.45398174     0.35800
C1570       C  0.63562457  0.54169728  0.44797580    -0.20300
C1571       C  0.61793402  0.56264415  0.46590029    -0.25500
C1572       C  0.61622804  0.54487522  0.48948373     0.27200
H1573       H  0.66264676  0.45356955  0.48229042     0.12900
N1574       N  0.66958215  0.47819830  0.43639404    -0.82800
H1575       H  0.60589861  0.59383116  0.46171508     0.17800
N1576       N  0.59804785  0.56710037  0.50734682    -0.81400
H1577       H  0.68072535  0.45026300  0.44405835     0.33400
H1578       H  0.65518805  0.46467055  0.42342077     0.37900
H1579       H  0.58760300  0.59603277  0.50011227     0.33400
H1580       H  0.58094602  0.54427465  0.51229810     0.30100
H1581       H  0.61138233  0.37742424  0.51118326     0.33400
H1582       H  0.59471976  0.42391978  0.49958167     0.30100
H1583       H  0.63430688  0.52460065  0.59514993     0.37900
H1584       H  0.65564035  0.55773441  0.57721512     0.33400
C1585       C  0.80971423  0.70749741  0.64048045    -0.20300
C1586       C  0.78530685  0.68925064  0.65365988     0.35900
C1587       C  0.77765565  0.64278313  0.65122793    -0.26300
C1588       C  0.79375438  0.61435185  0.63558040     0.02300
C1589       C  0.81919405  0.63159187  0.62350008     0.27100
C1590       C  0.82718478  0.67794665  0.62627957    -0.25400
N1591       N  0.76771806  0.71809975  0.66896795    -0.82800
H1592       H  0.75822477  0.62934944  0.66072579     0.12900
C1593       C  0.78225107  0.56774332  0.63058815     0.02300
N1594       N  0.83595304  0.60236308  0.60767443    -0.81400
H1595       H  0.84577848  0.69172229  0.61589331     0.17800
C1596       C  0.76591624  0.56016191  0.60943325    -0.26200
C1597       C  0.75131427  0.51802827  0.60543277     0.35800
C1598       C  0.75405718  0.48266279  0.62255351    -0.20300
C1599       C  0.77158249  0.48962483  0.64314112    -0.25500
C1600       C  0.78564077  0.53201802  0.64739329     0.27200
H1601       H  0.76332338  0.58799258  0.59665553     0.12900
N1602       N  0.73275671  0.51161995  0.58462733    -0.82800
H1603       H  0.77266483  0.46283245  0.65667021     0.17800
N1604       N  0.80224484  0.53967117  0.66912186    -0.81400
H1605       H  0.73294670  0.54106356  0.57389357     0.33400
H1606       H  0.71065306  0.50725864  0.59061200     0.37900
H1607       H  0.80221417  0.51010861  0.67980474     0.33400
H1608       H  0.82457239  0.54595976  0.66425599     0.30100
H1609       H  0.85380314  0.62044540  0.59981173     0.33400
H1610       H  0.84541760  0.57641315  0.61814158     0.30100
H1611       H  0.74552096  0.71705376  0.66299323     0.37900
H1612       H  0.76826114  0.70441459  0.68636123     0.33400
C1613       C  0.76297246  0.98968269  0.62553117    -0.20300
C1614       C  0.77227963  0.02749137  0.61129598     0.35900
C1615       C  0.75809492  0.07001559  0.61422770    -0.26300
C1616       C  0.73459876  0.07547214  0.63078391     0.02300
C1617       C  0.72377958  0.03715519  0.64367659     0.27100
C1618       C  0.73794154  0.99447399  0.64078606    -0.25400
N1619       N  0.79644633  0.02285899  0.59426895    -0.82800
H1620       H  0.76580530  0.09944715  0.60393791     0.12900
C1621       C  0.72273870  0.12217252  0.63506947     0.02300
N1622       N  0.69925705  0.04216568  0.66030271    -0.81400
H1623       H  0.73051754  0.96557830  0.65159264     0.17800
C1624       C  0.69333411  0.13295823  0.62836069    -0.26200
C1625       C  0.68280051  0.17835191  0.62956687     0.35800
C1626       C  0.70233309  0.21367992  0.63737387    -0.20300
C1627       C  0.73100905  0.20186369  0.64582408    -0.25500
C1628       C  0.74137042  0.15653662  0.64474039     0.27200
H1629       H  0.67894349  0.10613372  0.62137587     0.12900
N1630       N  0.65268931  0.18877018  0.62225954    -0.82800
H1631       H  0.74610982  0.22839904  0.65211364     0.17800
N1632       N  0.77110394  0.14535166  0.65274365    -0.81400
H1633       H  0.64145854  0.15905356  0.61679790     0.33400
H1634       H  0.64123434  0.20095075  0.63737015     0.37900
H1635       H  0.78209334  0.17455152  0.65919279     0.33400
H1636       H  0.76894968  0.12278558  0.66729653     0.30100
H1637       H  0.69398503  0.01068329  0.66834270     0.33400
H1638       H  0.70641980  0.06385388  0.67408957     0.30100
H1639       H  0.78950634  0.99956214  0.58113023     0.37900
H1640       H  0.80059828  0.05392920  0.58542508     0.33400
C1641       C  0.58495902  0.36090879  0.64740560    -0.20300
C1642       C  0.57017036  0.32080094  0.65540679     0.35900
C1643       C  0.53860648  0.31986682  0.65688921    -0.26300
C1644       C  0.52154147  0.35804335  0.64985724     0.02300
C1645       C  0.53635983  0.39805000  0.64175229     0.27100
C1646       C  0.56779760  0.39941396  0.64118952    -0.25400
N1647       N  0.58705233  0.28098599  0.66185981    -0.82800
H1648       H  0.52735295  0.28888219  0.66293464     0.12900
C1649       C  0.48822953  0.35536509  0.64896231     0.02300
N1650       N  0.51935341  0.43644630  0.63304190    -0.81400
H1651       H  0.57890946  0.42993069  0.63435123     0.17800
C1652       C  0.47110485  0.38750464  0.66173093    -0.26200
C1653       C  0.44013176  0.39254583  0.65756228     0.35800
C1654       C  0.42577466  0.36386401  0.64058011    -0.20300
C1655       C  0.44278368  0.32950377  0.62915947    -0.25500
C1656       C  0.47378972  0.32531608  0.63293780     0.27200
H1657       H  0.48235605  0.41046371  0.67407909     0.12900
N1658       N  0.42370536  0.42768471  0.66992470    -0.82800
H1659       H  0.43212652  0.30677445  0.61638214     0.17800
N1660       N  0.49086472  0.29194637  0.61977325    -0.81400
H1661       H  0.43730944  0.44397774  0.68260264     0.33400
H1662       H  0.41812072  0.45274401  0.65725045     0.37900
H1663       H  0.47684932  0.27228807  0.60880717     0.33400
H1664       H  0.50548394  0.30970506  0.60827886     0.30100
H1665       H  0.53359892  0.46311319  0.62760334     0.33400
H1666       H  0.50787497  0.42574340  0.61766312     0.30100
H1667       H  0.58003189  0.25387853  0.65096626     0.37900
H1668       H  0.58184546  0.27255253  0.67968641     0.33400
C1669       C  0.71899027  0.29035131  0.55832834    -0.20300
C1670       C  0.70979788  0.30122133  0.53477585     0.35900
C1671       C  0.71801886  0.27216150  0.51576560    -0.26300
C1672       C  0.73454177  0.23206516  0.52004076     0.02300
C1673       C  0.74206064  0.21986376  0.54380842     0.27100
C1674       C  0.73472300  0.24959021  0.56264831    -0.25400
N1675       N  0.69260417  0.34192766  0.53025110    -0.82800
H1676       H  0.71245387  0.28161684  0.49746884     0.12900
C1677       C  0.74772773  0.20723711  0.49938921     0.02300
N1678       N  0.75722383  0.17739193  0.54861180    -0.81400
H1679       H  0.74050687  0.24020992  0.58092705     0.17800
C1680       C  0.77899960  0.20381581  0.49825633    -0.26200
C1681       C  0.79336891  0.18664405  0.47784292     0.35800
C1682       C  0.77609608  0.17395683  0.45763185    -0.20300
C1683       C  0.74462300  0.17441873  0.45931083    -0.25500
C1684       C  0.73021601  0.19079911  0.48015481     0.27200
H1685       H  0.79240312  0.21616969  0.51312495     0.12900
N1686       N  0.82553025  0.18282631  0.47745151    -0.82800
H1687       H  0.73130025  0.16388122  0.44402787     0.17800
N1688       N  0.69803651  0.19175012  0.48171375    -0.81400
H1689       H  0.83479529  0.19426573  0.49359663     0.33400
H1690       H  0.83061699  0.14794690  0.47618111     0.37900
H1691       H  0.68850668  0.17851302  0.46604883     0.33400
H1692       H  0.69162195  0.16979183  0.49574453     0.30100
H1693       H  0.76109951  0.17350656  0.56704754     0.33400
H1694       H  0.74281426  0.15074054  0.54362598     0.30100
H1695       H  0.70604380  0.37017755  0.53457723     0.37900
H1696       H  0.68752949  0.34481054  0.51197924     0.33400
loop_ 
_geom_bond_atom_site_label_1 
_geom_bond_atom_site_label_2 
_geom_bond_distance 
_geom_bond_site_symmetry_2 
_ccdc_geom_bond_type 
O1           C16   1.262       .  A
O1           Al9   1.893       .  S
C2           O12   1.267       .  A
C2            O3   1.268       .  A
C2         C1557   1.497       .  S
O3           Al5   1.927       .  S
O4            C6   1.255       .  A
O4           Al5   1.882       .  S
Al5          O13   1.902       .  S
Al5          O15   1.920       .  S
Al5          O14   1.782       .  S
C6           O19   1.262       .  A
C6         C1669   1.471       .  S
O7           C17   1.264       .  A
O7           Al9   1.921       .  S
O8           C21   1.274       .  A
O8          Al18   1.932       .  S
Al9          O22   1.899       .  S
Al9          O19   1.913       .  S
Al9          O14   1.780       .  S
O10          C17   1.256       .  A
O10         Al18   1.890       .  S
O11          C20   1.262       .  A
O11         Al18   1.916       .  S
O12         Al18   1.914       .  S
O13          C20   1.258       .  A
O14         Al18   1.783       .  S
O15          C16   1.264       .  A
C16        C1626   1.488       .  S
C17        C1598   1.466       .  S
C20        C1641   1.483       .  S
C21          O22   1.265       .  A
C21        C1529   1.487       .  S
O23          C38   1.261       .  A
O23         Al31   1.886       .  S
C24          O34   1.259       .  A
C24          O25   1.267       .  A
C24        C1473   1.494       .  S
O25         Al27   1.938       .  S
O26          C28   1.256       .  A
O26         Al27   1.880       .  S
Al27         O35   1.906       .  S
Al27         O37   1.941       .  S
Al27         O36   1.785       .  S
C28          O41   1.262       .  A
C28        C1445   1.490   1_545  S
O29          C39   1.264       .  A
O29         Al31   1.908       .  S
O30          C43   1.264       .  A
O30         Al40   1.909       .  S
Al31         O44   1.924       .  S
Al31         O41   1.929       .  S
Al31         O36   1.783       .  S
O32          C39   1.263       .  A
O32         Al40   1.903       .  S
O33          C42   1.263       .  A
O33         Al40   1.909       .  S
O34         Al40   1.882       .  S
O35          C42   1.261       .  A
O36         Al40   1.779       .  S
O37          C38   1.269       .  A
C38        C1402   1.472       .  S
C39        C1682   1.479       .  S
C42        C1501   1.496       .  S
C43          O44   1.266       .  A
C43        C1417   1.489       .  S
O45          C60   1.260       .  A
O45         Al53   1.883       .  S
C46          O56   1.257       .  A
C46          O47   1.271       .  A
C46        C1333   1.494       .  S
O47         Al49   1.951       .  S
O48          C50   1.257       .  A
O48         Al49   1.882       .  S
Al49         O57   1.912       .  S
Al49         O59   1.951       .  S
Al49         O58   1.779       .  S
C50          O63   1.266       .  A
C50        C1318   1.493       .  S
O51          C61   1.263       .  A
O51         Al53   1.908       .  S
O52          C65   1.264       .  A
O52         Al62   1.899       .  S
Al53         O66   1.933       .  S
Al53         O63   1.946       .  S
Al53         O58   1.779       .  S
O54          C61   1.259       .  A
O54         Al62   1.890       .  S
O55          C64   1.260       .  A
O55         Al62   1.903       .  S
O56         Al62   1.873       .  S
O57          C64   1.262       .  A
O58         Al62   1.780       .  S
O59          C60   1.270       .  A
C60        C1249   1.479       .  S
C61        C1374   1.464       .  S
C64        C1654   1.494       .  S
C65          O66   1.269       .  A
C65        C1277   1.487       .  S
O67          C82   1.259       .  A
O67         Al75   1.894       .  S
C68          O78   1.269       .  A
C68          O69   1.267       .  A
C68        C1165   1.504       .  S
O69         Al71   1.928       .  S
O70          C72   1.258       .  A
O70         Al71   1.881       .  S
Al71         O79   1.910       .  S
Al71         O81   1.926       .  S
Al71         O80   1.786       .  S
C72          O85   1.261       .  A
C72        C1361   1.480       .  S
O73          C83   1.258       .  A
O73         Al75   1.914       .  S
O74          C87   1.274       .  A
O74         Al84   1.933       .  S
Al75         O88   1.904       .  S
Al75         O85   1.904       .  S
Al75         O80   1.780       .  S
O76          C83   1.254       .  A
O76         Al84   1.893       .  S
O77          C86   1.262       .  A
O77         Al84   1.920       .  S
O78         Al84   1.927       .  S
O79          C86   1.262       .  A
O80         Al84   1.787       .  S
O81          C82   1.264       .  A
C82        C1221   1.496       .  S
C83        C1193   1.468       .  S
C86        C1514   1.492       .  S
C87          O88   1.267       .  A
C87        C1150   1.494       .  S
O89         C104   1.260       .  A
O89         Al97   1.894       .  S
C90         O100   1.271       .  A
C90          O91   1.268       .  A
C90        C1178   1.498       .  S
O91         Al93   1.927       .  S
O92          C94   1.256       .  A
O92         Al93   1.871       .  S
Al93        O101   1.915       .  S
Al93        O103   1.920       .  S
Al93        O102   1.784       .  S
C94         O107   1.263       .  A
C94        C1109   1.479       .  S
O95         C105   1.257       .  A
O95         Al97   1.919       .  S
O96         C109   1.275       .  A
O96        Al106   1.925       .  S
Al97        O110   1.920       .  S
Al97        O107   1.913       .  S
Al97        O102   1.779       .  S
O98         C105   1.257       .  A
O98        Al106   1.910       .  S
O99         C108   1.264       .  A
O99        Al106   1.934       .  S
O100       Al106   1.925       .  S
O101        C108   1.262       .  A
O102       Al106   1.783       .  S
O103        C104   1.263       .  A
C104       C1305   1.497       .  S
C105       C1290   1.478       .  S
C108       C1094   1.501       .  S
C109        O110   1.271       .  A
C109       C1053   1.491       .  S
O111        C126   1.256       .  A
O111       Al119   1.871       .  S
C112        O122   1.258       .  A
C112        O113   1.271       .  A
C112       C1346   1.487       .  S
O113       Al115   1.946       .  S
O114        C116   1.258       .  A
O114       Al115   1.889       .  S
Al115       O123   1.929       .  S
Al115       O125   1.944       .  S
Al115       O124   1.787       .  S
C116        O129   1.266       .  A
C116       C1234   1.495       .  S
O117        C127   1.261       .  A
O117       Al119   1.912       .  S
O118        C131   1.266       .  A
O118       Al128   1.899       .  S
Al119       O132   1.933       .  S
Al119       O129   1.940       .  S
Al119       O124   1.781       .  S
O120        C127   1.258       .  A
O120       Al128   1.891       .  S
O121        C130   1.257       .  A
O121       Al128   1.895       .  S
O122       Al128   1.871       .  S
O123        C130   1.264       .  A
O124       Al128   1.777       .  S
O125        C126   1.269       .  A
C126        C997   1.473       .  S
C127       C1122   1.472       .  S
C130       C1025   1.499       .  S
C131        O132   1.269       .  A
C131       C1206   1.481       .  S
O133        C148   1.258       .  A
O133       Al141   1.878       .  S
C134        O144   1.259       .  A
C134        O135   1.272       .  A
C134       C1486   1.484       .  S
O135       Al137   1.960       .  S
O136        C138   1.257       .  A
O136       Al137   1.883       .  S
Al137       O145   1.919       .  S
Al137       O147   1.965       .  S
Al137       O146   1.779       .  S
C138        O151   1.265       .  A
C138       C1613   1.485       .  S
O139        C149   1.260       .  A
O139       Al141   1.906       .  S
O140        C153   1.265       .  A
O140       Al150   1.898       .  S
Al141       O154   1.926       .  S
Al141       O151   1.932       .  S
Al141       O146   1.780       .  S
O142        C149   1.262       .  A
O142       Al150   1.907       .  S
O143        C152   1.263       .  A
O143       Al150   1.923       .  S
O144       Al150   1.878       .  S
O145        C152   1.265       .  A
O146       Al150   1.776       .  S
O147        C148   1.273       .  A
C148        C941   1.485       .  S
C149        C982   1.468       .  S
C152       C1081   1.503       .  S
C153        O154   1.268       .  A
C153       C1585   1.480       .  S
O155        C170   1.259       .  A
O155       Al163   1.888       .  S
C156        O166   1.268       .  A
C156        O157   1.269       .  A
C156       C1570   1.499       .  S
O157       Al159   1.930       .  S
O158        C160   1.254       .  A
O158       Al159   1.869       .  S
Al159       O167   1.901       .  S
Al159       O169   1.915       .  S
Al159       O168   1.784       .  S
C160        O173   1.263       .  A
C160        C969   1.478       .  S
O161        C171   1.261       .  A
O161       Al163   1.925       .  S
O162        C175   1.275       .  A
O162       Al172   1.929       .  S
Al163       O176   1.906       .  S
Al163       O173   1.915       .  S
Al163       O168   1.776       .  S
O164        C171   1.257       .  A
O164       Al172   1.905       .  S
O165        C174   1.262       .  A
O165       Al172   1.931       .  S
O166       Al172   1.910       .  S
O167        C174   1.258       .  A
O168       Al172   1.782       .  S
O169        C170   1.263       .  A
C170       C1458   1.481       .  S
C171       C1430   1.478       .  S
C174       C1038   1.498       .  S
C175        O176   1.269       .  A
C175        C926   1.491       .  S
O177        C192   1.258       .  A
O177       Al185   1.886       .  S
C178        O188   1.271       .  A
C178        O179   1.273       .  A
C178        C786   1.500       .  S
O179       Al181   1.935       .  S
O180        C182   1.258       .  A
O180       Al181   1.885       .  S
Al181       O189   1.918       .  S
Al181       O191   1.923       .  S
Al181       O190   1.790       .  S
C182        O195   1.258       .  A
C182        C898   1.487       .  S
O183        C193   1.257       .  A
O183       Al185   1.924       .  S
O184        C197   1.276       .  A
O184       Al194   1.926       .  S
Al185       O198   1.909       .  S
Al185       O195   1.894       .  S
Al185       O190   1.779       .  S
O186        C193   1.252       .  A
O186       Al194   1.894       .  S
O187        C196   1.257       .  A
O187       Al194   1.909       .  S
O188       Al194   1.914       .  S
O189        C196   1.259       .  A
O190       Al194   1.789       .  S
O191        C192   1.264       .  A
C192        C829   1.498       .  S
C193        C801   1.478       .  S
C196        C857   1.490       .  S
C197        O198   1.270       .  A
C197       C1542   1.482       .  S
O199        C214   1.261       .  A
O199       Al207   1.886       .  S
C200        O210   1.262       .  A
C200        O201   1.271       .  A
C200        C717   1.491       .  S
O201       Al203   1.943       .  S
O202        C204   1.257       .  A
O202       Al203   1.893       .  S
Al203       O211   1.925       .  S
Al203       O213   1.937       .  S
Al203       O212   1.786       .  S
C204        O217   1.262       .  A
C204        C689   1.491       .  S
O205        C215   1.264       .  A
O205       Al207   1.923       .  S
O206        C219   1.265       .  A
O206       Al216   1.905       .  S
Al207       O220   1.926       .  S
Al207       O217   1.928       .  S
Al207       O212   1.785       .  S
O208        C215   1.257       .  A
O208       Al216   1.888       .  S
O209        C218   1.256       .  A
O209       Al216   1.889       .  S
O210       Al216   1.881       .  S
O211        C218   1.261       .  A
O212       Al216   1.781       .  S
O213        C214   1.269       .  A
C214       C1389   1.476       .  S
C215        C885   1.473       .  S
C218        C758   1.498       .  S
C219        O220   1.268       .  A
C219        C674   1.488       .  S
O221        C236   1.260       .  A
O221       Al229   1.887       .  S
C222        O232   1.259       .  A
C222        O223   1.270       .  A
C222        C605   1.491       .  S
O223       Al225   1.947       .  S
O224        C226   1.259       .  A
O224       Al225   1.888       .  S
Al225       O233   1.922       .  S
Al225       O235   1.946       .  S
Al225       O234   1.785       .  S
C226        O239   1.264       .  A
C226        C577   1.492       .  S
O227        C237   1.262       .  A
O227       Al229   1.918       .  S
O228        C241   1.263       .  A
O228       Al238   1.894       .  S
Al229       O242   1.933       .  S
Al229       O239   1.930       .  S
Al229       O234   1.780       .  S
O230        C237   1.259       .  A
O230       Al238   1.899       .  S
O231        C240   1.259       .  A
O231       Al238   1.899       .  S
O232       Al238   1.870       .  S
O233        C240   1.264       .  A
O234       Al238   1.779       .  S
O235        C236   1.268       .  A
C236       C1262   1.477       .  S
C237        C646   1.472       .  S
C240        C870   1.493       .  S
C241        O242   1.269       .  A
C241        C562   1.480       .  S
O243        C258   1.259       .  A
O243       Al251   1.887       .  S
C244        O254   1.270       .  A
C244        O245   1.270       .  A
C244        C465   1.494       .  S
O245       Al247   1.925       .  S
O246        C248   1.257       .  A
O246       Al247   1.880       .  S
Al247       O255   1.911       .  S
Al247       O257   1.913       .  S
Al247       O256   1.783       .  S
C248        O261   1.265       .  A
C248        C633   1.489       .  S
O249        C259   1.259       .  A
O249       Al251   1.925       .  S
O250        C263   1.275       .  A
O250       Al260   1.921       .  S
Al251       O264   1.922       .  S
Al251       O261   1.921       .  S
Al251       O256   1.778       .  S
O252        C259   1.252       .  A
O252       Al260   1.890       .  S
O253        C262   1.260       .  A
O253       Al260   1.919       .  S
O254       Al260   1.920       .  S
O255        C262   1.259       .  A
O256       Al260   1.789       .  S
O257        C258   1.261       .  A
C258        C534   1.493       .  S
C259        C506   1.472       .  S
C262        C745   1.492       .  S
C263        O264   1.272       .  A
C263       C1137   1.484       .  S
O265        C280   1.261       .  A
O265       Al273   1.895       .  S
C266        O276   1.265       .  A
C266        O267   1.265       .  A
C266        C478   1.480       .  S
O267       Al269   1.929       .  S
O268        C270   1.255       .  A
O268       Al269   1.870       .  S
Al269       O277   1.896       .  S
Al269       O279   1.914       .  S
Al269       O278   1.786       .  S
C270        O283   1.261       .  A
C270        C437   1.475       .  S
O271        C281   1.262       .  A
O271       Al273   1.922       .  S
O272        C285   1.275       .  A
O272       Al282   1.931       .  S
Al273       O286   1.900       .  S
Al273       O283   1.909       .  S
Al273       O278   1.781       .  S
O274        C281   1.255       .  A
O274       Al282   1.890       .  S
O275        C284   1.263       .  A
O275       Al282   1.930       .  S
O276       Al282   1.908       .  S
O277        C284   1.258       .  A
O278       Al282   1.784       .  S
O279        C280   1.263       .  A
C280        C590   1.491       .  S
C281        C549   1.473   1_565  S
C284        C422   1.494       .  S
C285        O286   1.266       .  A
C285       C1066   1.483       .  S
O287        C302   1.258       .  A
O287       Al295   1.875       .  S
C288        O298   1.259       .  A
C288        O289   1.270       .  A
C288        C618   1.479       .  S
O289       Al291   1.945       .  S
O290        C292   1.257       .  A
O290       Al291   1.888       .  S
Al291       O299   1.923       .  S
Al291       O301   1.947       .  S
Al291       O300   1.784       .  S
C292        O305   1.262       .  A
C292        C521   1.483       .  S
O293        C303   1.261       .  A
O293       Al295   1.911       .  S
O294        C307   1.266       .  A
O294       Al304   1.901       .  S
Al295       O308   1.924       .  S
Al295       O305   1.929       .  S
Al295       O300   1.781       .  S
O296        C303   1.258       .  A
O296       Al304   1.887       .  S
O297        C306   1.258       .  A
O297       Al304   1.897       .  S
O298       Al304   1.867       .  S
O299        C306   1.264       .  A
O300       Al304   1.778       .  S
O301        C302   1.270       .  A
C302       C1010   1.476       .  S
C303        C450   1.462       .  S
C306        C381   1.494       .  S
C307        O308   1.267       .  A
C307        C493   1.478       .  S
O309        C324   1.259       .  A
O309       Al317   1.883       .  S
C310        O320   1.263       .  A
C310        O311   1.271       .  A
C310        C730   1.500       .  S
O311       Al313   1.949       .  S
O312        C314   1.259       .  A
O312       Al313   1.895       .  S
Al313       O321   1.927       .  S
Al313       O323   1.951       .  S
Al313       O322   1.786       .  S
C314        O327   1.262       .  A
C314        C842   1.490   1_565  S
O315        C325   1.262       .  A
O315       Al317   1.916       .  S
O316        C329   1.268       .  A
O316       Al326   1.912       .  S
Al317       O330   1.917       .  S
Al317       O327   1.924       .  S
Al317       O322   1.782       .  S
O318        C325   1.255       .  A
O318       Al326   1.881       .  S
O319        C328   1.256       .  A
O319       Al326   1.892       .  S
O320       Al326   1.889       .  S
O321        C328   1.264       .  A
O322       Al326   1.784       .  S
O323        C324   1.269       .  A
C324        C954   1.482       .  S
C325        C353   1.467       .  S
C328        C409   1.498       .  S
C329        O330   1.267       .  A
C329        C814   1.486       .  S
O331        C346   1.259       .  A
O331       Al339   1.896       .  S
C332        O342   1.266       .  A
C332        O333   1.268       .  A
C332        C773   1.502       .  S
O333       Al335   1.934       .  S
O334        C336   1.255       .  A
O334       Al335   1.864       .  S
Al335       O343   1.900       .  S
Al335       O345   1.921       .  S
Al335       O344   1.783       .  S
C336        O349   1.265       .  A
C336        C366   1.473       .  S
O337        C347   1.258       .  A
O337       Al339   1.917       .  S
O338        C351   1.272       .  A
O338       Al348   1.918       .  S
Al339       O352   1.911       .  S
Al339       O349   1.920       .  S
Al339       O344   1.780       .  S
O340        C347   1.253       .  A
O340       Al348   1.888       .  S
O341        C350   1.263       .  A
O341       Al348   1.926       .  S
O342       Al348   1.916       .  S
O343        C350   1.261       .  A
O344       Al348   1.787       .  S
O345        C346   1.262       .  A
C346        C702   1.497       .  S
C347        C661   1.468       .  S
C350        C394   1.494       .  S
C351        O352   1.268       .  A
C351        C913   1.475       .  S
C353        C354   1.411       .  A
C353        C358   1.399       .  A
C354        C355   1.394       .  A
C354        N359   1.434       .  S
C355        C356   1.397       .  A
C355        H360   1.084       .  S
C356        C361   1.472   1_556  S
C356        C357   1.419       .  A
C357        C358   1.403       .  A
C357        N362   1.438   1_556  S
C358        H363   1.084       .  S
N359        H379   1.046       .  S
N359        H380   1.046       .  S
C361        C364   1.399       .  A
C361        C368   1.410       .  A
N362        H377   1.043       .  S
N362        H378   1.046       .  S
C364        C365   1.398       .  A
C364        H369   1.084   1_554  S
C365        C366   1.412       .  A
C365        N370   1.434       .  S
C366        C367   1.404       .  A
C367        C368   1.404       .  A
C367        H371   1.084       .  S
C368        N372   1.438       .  S
N370        H373   1.046       .  S
N370        H374   1.046       .  S
N372        H375   1.047       .  S
N372        H376   1.043       .  S
C381        C382   1.418       .  A
C381        C386   1.408       .  A
C382        C383   1.399       .  A
C382        N387   1.433       .  S
C383        C384   1.399       .  A
C383        H388   1.084       .  S
C384        C389   1.490   1_455  S
C384        C385   1.412       .  A
C385        C386   1.414       .  A
C385        N390   1.437       .  S
C386        H391   1.083       .  S
N387        H407   1.045       .  S
N387        H408   1.046       .  S
C389        C392   1.402       .  A
C389        C396   1.410       .  A
N390        H405   1.045       .  S
N390        H406   1.046       .  S
C392        C393   1.409       .  A
C392        H397   1.084       .  S
C393        C394   1.419       .  A
C393        N398   1.438       .  S
C394        C395   1.407       .  A
C395        C396   1.406       .  A
C395        H399   1.083       .  S
C396        N400   1.438       .  S
N398        H401   1.047       .  S
N398        H402   1.044       .  S
N400        H403   1.046       .  S
N400        H404   1.045       .  S
C409        C410   1.423       .  A
C409        C414   1.408       .  A
C410        C411   1.404       .  A
C410        N415   1.439       .  S
C411        C412   1.400       .  A
C411        H416   1.084       .  S
C412        C417   1.494       .  S
C412        C413   1.412       .  A
C413        C414   1.412       .  A
C413        N418   1.437       .  S
C414        H419   1.083       .  S
N415        H435   1.046       .  S
N415        H436   1.045       .  S
C417        C420   1.403       .  A
C417        C424   1.412       .  A
N418        H433   1.046       .  S
N418        H434   1.045       .  S
C420        C421   1.408       .  A
C420        H425   1.084       .  S
C421        C422   1.419       .  A
C421        N426   1.438       .  S
C422        C423   1.407       .  A
C423        C424   1.408       .  A
C423        H427   1.083       .  S
C424        N428   1.438       .  S
N426        H429   1.046       .  S
N426        H430   1.045       .  S
N428        H431   1.046       .  S
N428        H432   1.045       .  S
C437        C438   1.412       .  A
C437        C442   1.408       .  A
C438        C439   1.403       .  A
C438        N443   1.438       .  S
C439        C440   1.404   1_556  A
C439        H444   1.084       .  S
C440        C445   1.474       .  S
C440        C441   1.404   1_554  A
C441        C442   1.399       .  A
C441        N446   1.438   1_556  S
C442        H447   1.084       .  S
N443        H463   1.045       .  S
N443        H464   1.046       .  S
C445        C448   1.407       .  A
C445        C452   1.405       .  A
N446        H461   1.046       .  S
N446        H462   1.045       .  S
C448        C449   1.407       .  A
C448        H453   1.084       .  S
C449        C450   1.406       .  A
C449        N454   1.437       .  S
C450        C451   1.402       .  A
C451        C452   1.394       .  A
C451        H455   1.085       .  S
C452        N456   1.438       .  S
N454        H457   1.046       .  S
N454        H458   1.045       .  S
N456        H459   1.045       .  S
N456        H460   1.045       .  S
C465        C466   1.416       .  A
C465        C470   1.411       .  A
C466        C467   1.412   1_545  A
C466        N471   1.437   1_545  S
C467        C468   1.404   1_565  A
C467        H472   1.084       .  S
C468        C473   1.484   1_554  S
C468        C469   1.406       .  A
C469        C470   1.405       .  A
C469        N474   1.438       .  S
C470        H475   1.083       .  S
N471        H491   1.045       .  S
N471        H492   1.046       .  S
C473        C476   1.400       .  A
C473        C480   1.411   1_545  A
N474        H489   1.045       .  S
N474        H490   1.045   1_554  S
C476        C477   1.405   1_545  A
C476        H481   1.084       .  S
C477        C478   1.413       .  A
C477        N482   1.438       .  S
C478        C479   1.404       .  A
C479        C480   1.411       .  A
C479        H483   1.084       .  S
C480        N484   1.437       .  S
N482        H485   1.046   1_565  S
N482        H486   1.045       .  S
N484        H487   1.045       .  S
N484        H488   1.045   1_565  S
C493        C494   1.411       .  A
C493        C498   1.402       .  A
C494        C495   1.404       .  A
C494        N499   1.432       .  S
C495        C496   1.404       .  A
C495        H500   1.084       .  S
C496        C501   1.492       .  S
C496        C497   1.415       .  A
C497        C498   1.406       .  A
C497        N502   1.438       .  S
C498        H503   1.084       .  S
N499        H519   1.046       .  S
N499        H520   1.045       .  S
C501        C504   1.403       .  A
C501        C508   1.416       .  A
N502        H517   1.046       .  S
N502        H518   1.045       .  S
C504        C505   1.405   1_565  A
C504        H509   1.084       .  S
C505        C506   1.411       .  A
C505        N510   1.438       .  S
C506        C507   1.399   1_545  A
C507        C508   1.409       .  A
C507        H511   1.084   1_565  S
C508        N512   1.436       .  S
N510        H513   1.045       .  S
N510        H514   1.046       .  S
N512        H515   1.046       .  S
N512        H516   1.046       .  S
C521        C522   1.412       .  A
C521        C526   1.406       .  A
C522        C523   1.406       .  A
C522        N527   1.438       .  S
C523        C524   1.403       .  A
C523        H528   1.084       .  S
C524        C529   1.485       .  S
C524        C525   1.409       .  A
C525        C526   1.409       .  A
C525        N530   1.437       .  S
C526        H531   1.083       .  S
N527        H547   1.047       .  S
N527        H548   1.045       .  S
C529        C532   1.403       .  A
C529        C536   1.407       .  A
N530        H545   1.046       .  S
N530        H546   1.045       .  S
C532        C533   1.413       .  A
C532        H537   1.083       .  S
C533        C534   1.419       .  A
C533        N538   1.437       .  S
C534        C535   1.408       .  A
C535        C536   1.402       .  A
C535        H539   1.083       .  S
C536        N540   1.438       .  S
N538        H541   1.045       .  S
N538        H542   1.046       .  S
N540        H543   1.046       .  S
N540        H544   1.045       .  S
C549        C550   1.408       .  A
C549        C554   1.404       .  A
C550        C551   1.398       .  A
C550        N555   1.432       .  S
C551        C552   1.400       .  A
C551        H556   1.084       .  S
C552        C557   1.483       .  S
C552        C553   1.413       .  A
C553        C554   1.413       .  A
C553        N558   1.437       .  S
C554        H559   1.084   1_545  S
N555        H575   1.045       .  S
N555        H576   1.046       .  S
C557        C560   1.406       .  A
C557        C564   1.416       .  A
N558        H573   1.045       .  S
N558        H574   1.044       .  S
C560        C561   1.403       .  A
C560        H565   1.084       .  S
C561        C562   1.406       .  A
C561        N566   1.432       .  S
C562        C563   1.406       .  A
C563        C564   1.403       .  A
C563        H567   1.084       .  S
C564        N568   1.439       .  S
N566        H569   1.045       .  S
N566        H570   1.046       .  S
N568        H571   1.046       .  S
N568        H572   1.042       .  S
C577        C578   1.419       .  A
C577        C582   1.408       .  A
C578        C579   1.410       .  A
C578        N583   1.437       .  S
C579        C580   1.400       .  A
C579        H584   1.084       .  S
C580        C585   1.481       .  S
C580        C581   1.407       .  A
C581        C582   1.404       .  A
C581        N586   1.438       .  S
C582        H587   1.082       .  S
N583        H603   1.045       .  S
N583        H604   1.046       .  S
C585        C588   1.401       .  A
C585        C592   1.406       .  A
N586        H601   1.046       .  S
N586        H602   1.045       .  S
C588        C589   1.406       .  A
C588        H593   1.084       .  S
C589        C590   1.416       .  A
C589        N594   1.438       .  S
C590        C591   1.410       .  A
C591        C592   1.408       .  A
C591        H595   1.083       .  S
C592        N596   1.437       .  S
N594        H597   1.047       .  S
N594        H598   1.045       .  S
N596        H599   1.046       .  S
N596        H600   1.046       .  S
C605        C606   1.416       .  A
C605        C610   1.410       .  A
C606        C607   1.408       .  A
C606        N611   1.438       .  S
C607        C608   1.405       .  A
C607        H612   1.084       .  S
C608        C613   1.489   1_556  S
C608        C609   1.408       .  A
C609        C610   1.403       .  A
C609        N614   1.438   1_556  S
C610        H615   1.083       .  S
N611        H631   1.044       .  S
N611        H632   1.046       .  S
C613        C616   1.408       .  A
C613        C620   1.410       .  A
N614        H629   1.045       .  S
N614        H630   1.046       .  S
C616        C617   1.410       .  A
C616        H621   1.083       .  S
C617        C618   1.410       .  A
C617        N622   1.437       .  S
C618        C619   1.405       .  A
C619        C620   1.400       .  A
C619        H623   1.084       .  S
C620        N624   1.439   1_554  S
N622        H625   1.045       .  S
N622        H626   1.046       .  S
N624        H627   1.046   1_556  S
N624        H628   1.046       .  S
C633        C634   1.419       .  A
C633        C638   1.406       .  A
C634        C635   1.402       .  A
C634        N639   1.433       .  S
C635        C636   1.397       .  A
C635        H640   1.084       .  S
C636        C641   1.480   1_554  S
C636        C637   1.411       .  A
C637        C638   1.407       .  A
C637        N642   1.438       .  S
C638        H643   1.083       .  S
N639        H659   1.046       .  S
N639        H660   1.046       .  S
C641        C644   1.398       .  A
C641        C648   1.413       .  A
N642        H657   1.046       .  S
N642        H658   1.046       .  S
C644        C645   1.399       .  A
C644        H649   1.084       .  S
C645        C646   1.412       .  A
C645        N650   1.438       .  S
C646        C647   1.402       .  A
C647        C648   1.411       .  A
C647        H651   1.084       .  S
C648        N652   1.437       .  S
N650        H653   1.046       .  S
N650        H654   1.046       .  S
N652        H655   1.046       .  S
N652        H656   1.045   1_556  S
C661        C662   1.411       .  A
C661        C666   1.400       .  A
C662        C663   1.405       .  A
C662        N667   1.438       .  S
C663        C664   1.400       .  A
C663        H668   1.084       .  S
C664        C669   1.480       .  S
C664        C665   1.413       .  A
C665        C666   1.408       .  A
C665        N670   1.438       .  S
C666        H671   1.084       .  S
N667        H687   1.046       .  S
N667        H688   1.046       .  S
C669        C672   1.399       .  A
C669        C676   1.408       .  A
N670        H685   1.046       .  S
N670        H686   1.046       .  S
C672        C673   1.408       .  A
C672        H677   1.084       .  S
C673        C674   1.418       .  A
C673        N678   1.437       .  S
C674        C675   1.407       .  A
C675        C676   1.405       .  A
C675        H679   1.084       .  S
C676        N680   1.438       .  S
N678        H681   1.046       .  S
N678        H682   1.045       .  S
N680        H683   1.045       .  S
N680        H684   1.046       .  S
C689        C690   1.414   1_545  A
C689        C694   1.408       .  A
C690        C691   1.408       .  A
C690        N695   1.438       .  S
C691        C692   1.403       .  A
C691        H696   1.084       .  S
C692        C697   1.491       .  S
C692        C693   1.410       .  A
C693        C694   1.412   1_565  A
C693        N698   1.437       .  S
C694        H699   1.083       .  S
N695        H715   1.045       .  S
N695        H716   1.046   1_565  S
C697        C700   1.403       .  A
C697        C704   1.409       .  A
N698        H713   1.046       .  S
N698        H714   1.045       .  S
C700        C701   1.411       .  A
C700        H705   1.084       .  S
C701        C702   1.416       .  A
C701        N706   1.432       .  S
C702        C703   1.408       .  A
C703        C704   1.406       .  A
C703        H707   1.083       .  S
C704        N708   1.438       .  S
N706        H709   1.045       .  S
N706        H710   1.046       .  S
N708        H711   1.047       .  S
N708        H712   1.044       .  S
C717        C718   1.414       .  A
C717        C722   1.407       .  A
C718        C719   1.412       .  A
C718        N723   1.437       .  S
C719        C720   1.407       .  A
C719        H724   1.083   1_545  S
C720        C725   1.495   1_544  S
C720        C721   1.411       .  A
C721        C722   1.405       .  A
C721        N726   1.438       .  S
C722        H727   1.084       .  S
N723        H743   1.046       .  S
N723        H744   1.045   1_545  S
C725        C728   1.405   1_565  A
C725        C732   1.410       .  A
N726        H741   1.046       .  S
N726        H742   1.045   1_554  S
C728        C729   1.412   1_545  A
C728        H733   1.084       .  S
C729        C730   1.418       .  A
C729        N734   1.437   1_565  S
C730        C731   1.411       .  A
C731        C732   1.407       .  A
C731        H735   1.083       .  S
C732        N736   1.439   1_556  S
N734        H737   1.045       .  S
N734        H738   1.046       .  S
N736        H739   1.046       .  S
N736        H740   1.046       .  S
C745        C746   1.413       .  A
C745        C750   1.408       .  A
C746        C747   1.410       .  A
C746        N751   1.437       .  S
C747        C748   1.407       .  A
C747        H752   1.083       .  S
C748        C753   1.496       .  S
C748        C749   1.412       .  A
C749        C750   1.407       .  A
C749        N754   1.438       .  S
C750        H755   1.083       .  S
N751        H771   1.046       .  S
N751        H772   1.046       .  S
C753        C756   1.408       .  A
C753        C760   1.410       .  A
N754        H769   1.046       .  S
N754        H770   1.046       .  S
C756        C757   1.414       .  A
C756        H761   1.083       .  S
C757        C758   1.416       .  A
C757        N762   1.437       .  S
C758        C759   1.410       .  A
C759        C760   1.403       .  A
C759        H763   1.083       .  S
C760        N764   1.439       .  S
N762        H765   1.046       .  S
N762        H766   1.045       .  S
N764        H767   1.045       .  S
N764        H768   1.046       .  S
C773        C774   1.419       .  A
C773        C778   1.412       .  A
C774        C775   1.411       .  A
C774        N779   1.438       .  S
C775        C776   1.404       .  A
C775        H780   1.084       .  S
C776        C781   1.497   1_554  S
C776        C777   1.409       .  A
C777        C778   1.411       .  A
C777        N782   1.438       .  S
C778        H783   1.083       .  S
N779        H799   1.045       .  S
N779        H800   1.046       .  S
C781        C784   1.405       .  A
C781        C788   1.410       .  A
N782        H797   1.045       .  S
N782        H798   1.046       .  S
C784        C785   1.413       .  A
C784        H789   1.084       .  S
C785        C786   1.418       .  A
C785        N790   1.437       .  S
C786        C787   1.410       .  A
C787        C788   1.408       .  A
C787        H791   1.083       .  S
C788        N792   1.438   1_556  S
N790        H793   1.045       .  S
N790        H794   1.046       .  S
N792        H795   1.046       .  S
N792        H796   1.045       .  S
C801        C802   1.407       .  A
C801        C806   1.403       .  A
C802        C803   1.413       .  A
C802        N807   1.437       .  S
C803        C804   1.411       .  A
C803        H808   1.083       .  S
C804        C809   1.496       .  S
C804        C805   1.412       .  A
C805        C806   1.403       .  A
C805        N810   1.438       .  S
C806        H811   1.085       .  S
N807        H827   1.046       .  S
N807        H828   1.045       .  S
C809        C812   1.405       .  A
C809        C816   1.413       .  A
N810        H825   1.046       .  S
N810        H826   1.045       .  S
C812        C813   1.403       .  A
C812        H817   1.083       .  S
C813        C814   1.412       .  A
C813        N818   1.439       .  S
C814        C815   1.406       .  A
C815        C816   1.411       .  A
C815        H819   1.083       .  S
C816        N820   1.437       .  S
N818        H821   1.046       .  S
N818        H822   1.045       .  S
N820        H823   1.045       .  S
N820        H824   1.046       .  S
C829        C830   1.418       .  A
C829        C834   1.411       .  A
C830        C831   1.400       .  A
C830        N835   1.432       .  S
C831        C832   1.398       .  A
C831        H836   1.084       .  S
C832        C837   1.488       .  S
C832        C833   1.409       .  A
C833        C834   1.414       .  A
C833        N838   1.437       .  S
C834        H839   1.083       .  S
N835        H855   1.046       .  S
N835        H856   1.045       .  S
C837        C840   1.402       .  A
C837        C844   1.410       .  A
N838        H853   1.047       .  S
N838        H854   1.044       .  S
C840        C841   1.411       .  A
C840        H845   1.084       .  S
C841        C842   1.418       .  A
C841        N846   1.438   1_545  S
C842        C843   1.406       .  A
C843        C844   1.405       .  A
C843        H847   1.084       .  S
C844        N848   1.438       .  S
N846        H849   1.047       .  S
N846        H850   1.043       .  S
N848        H851   1.047       .  S
N848        H852   1.045       .  S
C857        C858   1.414       .  A
C857        C862   1.405       .  A
C858        C859   1.402       .  A
C858        N863   1.433       .  S
C859        C860   1.402       .  A
C859        H864   1.084       .  S
C860        C865   1.497   1_655  S
C860        C861   1.416       .  A
C861        C862   1.413       .  A
C861        N866   1.437       .  S
C862        H867   1.083       .  S
N863        H883   1.046       .  S
N863        H884   1.046       .  S
C865        C868   1.402       .  A
C865        C872   1.416       .  A
N866        H881   1.046       .  S
N866        H882   1.045       .  S
C868        C869   1.402       .  A
C868        H873   1.083       .  S
C869        C870   1.416       .  A
C869        N874   1.433       .  S
C870        C871   1.406       .  A
C871        C872   1.412       .  A
C871        H875   1.083       .  S
C872        N876   1.437       .  S
N874        H877   1.046       .  S
N874        H878   1.046       .  S
N876        H879   1.045       .  S
N876        H880   1.046       .  S
C885        C886   1.408       .  A
C885        C890   1.406       .  A
C886        C887   1.408       .  A
C886        N891   1.437       .  S
C887        C888   1.406       .  A
C887        H892   1.084       .  S
C888        C893   1.479       .  S
C888        C889   1.407       .  A
C889        C890   1.399       .  A
C889        N894   1.438       .  S
C890        H895   1.085       .  S
N891        H911   1.046       .  S
N891        H912   1.045       .  S
C893        C896   1.401   1_554  A
C893        C900   1.406       .  A
N894        H909   1.046       .  S
N894        H910   1.045       .  S
C896        C897   1.397       .  A
C896        H901   1.084       .  S
C897        C898   1.421       .  A
C897        N902   1.433       .  S
C898        C899   1.410       .  A
C899        C900   1.404   1_556  A
C899        H903   1.083       .  S
C900        N904   1.438       .  S
N902        H905   1.045       .  S
N902        H906   1.046       .  S
N904        H907   1.046       .  S
N904        H908   1.046       .  S
C913        C914   1.406       .  A
C913        C918   1.403       .  A
C914        C915   1.401       .  A
C914        N919   1.433       .  S
C915        C916   1.404       .  A
C915        H920   1.084       .  S
C916        C921   1.492       .  S
C916        C917   1.415       .  A
C917        C918   1.412       .  A
C917        N922   1.437       .  S
C918        H923   1.084       .  S
N919        H939   1.045       .  S
N919        H940   1.045       .  S
C921        C924   1.408       .  A
C921        C928   1.409       .  A
N922        H937   1.046       .  S
N922        H938   1.046       .  S
C924        C925   1.413       .  A
C924        H929   1.083       .  S
C925        C926   1.413       .  A
C925        N930   1.437       .  S
C926        C927   1.409       .  A
C927        C928   1.402       .  A
C927        H931   1.084       .  S
C928        N932   1.439       .  S
N930        H933   1.046       .  S
N930        H934   1.045       .  S
N932        H935   1.046       .  S
N932        H936   1.045       .  S
C941        C942   1.413       .  A
C941        C946   1.403       .  A
C942        C943   1.412       .  A
C942        N947   1.437       .  S
C943        C944   1.408       .  A
C943        H948   1.083       .  S
C944        C949   1.504       .  S
C944        C945   1.416       .  A
C945        C946   1.409       .  A
C945        N950   1.438       .  S
C946        H951   1.084       .  S
N947        H967   1.045       .  S
N947        H968   1.046       .  S
C949        C952   1.409       .  A
C949        C956   1.416       .  A
N950        H965   1.045       .  S
N950        H966   1.046       .  S
C952        C953   1.409       .  A
C952        H957   1.083       .  S
C953        C954   1.408       .  A
C953        N958   1.438       .  S
C954        C955   1.403       .  A
C955        C956   1.412       .  A
C955        H959   1.083       .  S
C956        N960   1.438       .  S
N958        H961   1.045       .  S
N958        H962   1.046       .  S
N960        H963   1.046   1_565  S
N960        H964   1.046       .  S
C969        C970   1.417       .  A
C969        C974   1.404       .  A
C970        C971   1.404       .  A
C970        N975   1.438       .  S
C971        C972   1.399       .  A
C971        H976   1.084       .  S
C972        C977   1.470       .  S
C972        C973   1.409       .  A
C973        C974   1.401       .  A
C973        N978   1.439       .  S
C974        H979   1.084       .  S
N975        H995   1.046       .  S
N975        H996   1.046       .  S
C977        C980   1.396       .  A
C977        C984   1.412       .  A
N978        H993   1.046       .  S
N978        H994   1.043       .  S
C980        C981   1.393       .  A
C980        H985   1.084       .  S
C981        C982   1.409       .  A
C981        N986   1.433       .  S
C982        C983   1.402       .  A
C983        C984   1.409       .  A
C983        H987   1.084       .  S
C984        N988   1.438       .  S
N986        H989   1.046       .  S
N986        H990   1.046       .  S
N988        H991   1.046       .  S
N988        H992   1.043       .  S
C997        C998   1.408       .  A
C997       C1002   1.401       .  A
C998        C999   1.406       .  A
C998       N1003   1.438       .  S
C999       C1000   1.408       .  A
C999       H1004   1.083       .  S
C1000      C1005   1.497       .  S
C1000      C1001   1.416       .  A
C1001      C1002   1.408       .  A
C1001      N1006   1.438       .  S
C1002      H1007   1.084       .  S
N1003      H1023   1.046       .  S
N1003      H1024   1.045       .  S
C1005      C1008   1.406       .  A
C1005      C1012   1.416       .  A
N1006      H1021   1.046       .  S
N1006      H1022   1.046       .  S
C1008      C1009   1.407       .  A
C1008      H1013   1.083       .  S
C1009      C1010   1.410       .  A
C1009      N1014   1.438       .  S
C1010      C1011   1.402       .  A
C1011      C1012   1.407       .  A
C1011      H1015   1.084       .  S
C1012      N1016   1.438       .  S
N1014      H1017   1.046       .  S
N1014      H1018   1.045       .  S
N1016      H1019   1.045       .  S
N1016      H1020   1.046       .  S
C1025      C1026   1.419       .  A
C1025      C1030   1.408       .  A
C1026      C1027   1.400       .  A
C1026      N1031   1.433       .  S
C1027      C1028   1.401       .  A
C1027      H1032   1.083       .  S
C1028      C1033   1.500       .  S
C1028      C1029   1.416       .  A
C1029      C1030   1.416       .  A
C1029      N1034   1.437       .  S
C1030      H1035   1.083       .  S
N1031      H1051   1.045       .  S
N1031      H1052   1.046       .  S
C1033      C1036   1.404       .  A
C1033      C1040   1.414       .  A
N1034      H1049   1.046       .  S
N1034      H1050   1.045       .  S
C1036      C1037   1.409       .  A
C1036      H1041   1.083       .  S
C1037      C1038   1.418       .  A
C1037      N1042   1.438       .  S
C1038      C1039   1.408       .  A
C1039      C1040   1.409       .  A
C1039      H1043   1.083       .  S
C1040      N1044   1.438       .  S
N1042      H1045   1.045       .  S
N1042      H1046   1.046       .  S
N1044      H1047   1.046       .  S
N1044      H1048   1.045       .  S
C1053      C1054   1.416       .  A
C1053      C1058   1.407       .  A
C1054      C1055   1.401       .  A
C1054      N1059   1.433       .  S
C1055      C1056   1.398       .  A
C1055      H1060   1.084       .  S
C1056      C1061   1.486       .  S
C1056      C1057   1.411       .  A
C1057      C1058   1.414       .  A
C1057      N1062   1.437       .  S
C1058      H1063   1.083       .  S
N1059      H1079   1.046       .  S
N1059      H1080   1.045       .  S
C1061      C1064   1.406       .  A
C1061      C1068   1.407       .  A
N1062      H1077   1.045       .  S
N1062      H1078   1.047       .  S
C1064      C1065   1.413       .  A
C1064      H1069   1.084       .  S
C1065      C1066   1.412       .  A
C1065      N1070   1.437       .  S
C1066      C1067   1.407       .  A
C1067      C1068   1.403       .  A
C1067      H1071   1.084       .  S
C1068      N1072   1.438       .  S
N1070      H1073   1.046   1_565  S
N1070      H1074   1.045       .  S
N1072      H1075   1.045       .  S
N1072      H1076   1.046       .  S
C1081      C1082   1.420       .  A
C1081      C1086   1.408       .  A
C1082      C1083   1.410       .  A
C1082      N1087   1.438       .  S
C1083      C1084   1.404       .  A
C1083      H1088   1.083       .  S
C1084      C1089   1.504   1_655  S
C1084      C1085   1.415       .  A
C1085      C1086   1.413       .  A
C1085      N1090   1.437       .  S
C1086      H1091   1.083       .  S
N1087      H1107   1.045       .  S
N1087      H1108   1.046       .  S
C1089      C1092   1.404       .  A
C1089      C1096   1.415       .  A
N1090      H1105   1.046       .  S
N1090      H1106   1.045       .  S
C1092      C1093   1.409       .  A
C1092      H1097   1.083       .  S
C1093      C1094   1.419       .  A
C1093      N1098   1.438       .  S
C1094      C1095   1.408       .  A
C1095      C1096   1.414       .  A
C1095      H1099   1.083       .  S
C1096      N1100   1.437       .  S
N1098      H1101   1.046       .  S
N1098      H1102   1.045       .  S
N1100      H1103   1.045       .  S
N1100      H1104   1.046       .  S
C1109      C1110   1.411       .  A
C1109      C1114   1.410       .  A
C1110      C1111   1.397       .  A
C1110      N1115   1.432       .  S
C1111      C1112   1.398       .  A
C1111      H1116   1.084       .  S
C1112      C1117   1.469       .  S
C1112      C1113   1.404       .  A
C1113      C1114   1.404       .  A
C1113      N1118   1.437       .  S
C1114      H1119   1.084       .  S
N1115      H1135   1.045       .  S
N1115      H1136   1.046       .  S
C1117      C1120   1.405       .  A
C1117      C1124   1.410       .  A
N1118      H1133   1.046       .  S
N1118      H1134   1.045       .  S
C1120      C1121   1.407       .  A
C1120      H1125   1.084       .  S
C1121      C1122   1.408       .  A
C1121      N1126   1.437       .  S
C1122      C1123   1.406       .  A
C1123      C1124   1.393       .  A
C1123      H1127   1.085       .  S
C1124      N1128   1.440       .  S
N1126      H1129   1.046       .  S
N1126      H1130   1.045       .  S
N1128      H1131   1.045       .  S
N1128      H1132   1.044       .  S
C1137      C1138   1.415       .  A
C1137      C1142   1.404       .  A
C1138      C1139   1.406       .  A
C1138      N1143   1.439       .  S
C1139      C1140   1.402       .  A
C1139      H1144   1.084       .  S
C1140      C1145   1.489       .  S
C1140      C1141   1.411       .  A
C1141      C1142   1.411       .  A
C1141      N1146   1.437       .  S
C1142      H1147   1.084       .  S
N1143      H1163   1.046       .  S
N1143      H1164   1.046       .  S
C1145      C1148   1.406       .  A
C1145      C1152   1.406       .  A
N1146      H1161   1.046       .  S
N1146      H1162   1.046       .  S
C1148      C1149   1.414       .  A
C1148      H1153   1.084       .  S
C1149      C1150   1.414       .  A
C1149      N1154   1.437       .  S
C1150      C1151   1.410       .  A
C1151      C1152   1.404       .  A
C1151      H1155   1.084       .  S
C1152      N1156   1.438       .  S
N1154      H1157   1.046       .  S
N1154      H1158   1.045       .  S
N1156      H1159   1.046       .  S
N1156      H1160   1.045       .  S
C1165      C1166   1.420       .  A
C1165      C1170   1.410       .  A
C1166      C1167   1.406       .  A
C1166      N1171   1.432       .  S
C1167      C1168   1.399       .  A
C1167      H1172   1.084       .  S
C1168      C1173   1.492   1_545  S
C1168      C1169   1.411   1_545  A
C1169      C1170   1.414   1_565  A
C1169      N1174   1.438       .  S
C1170      H1175   1.083   1_545  S
N1171      H1191   1.046       .  S
N1171      H1192   1.045       .  S
C1173      C1176   1.401       .  A
C1173      C1180   1.410   1_565  A
N1174      H1189   1.045       .  S
N1174      H1190   1.046       .  S
C1176      C1177   1.412       .  A
C1176      H1181   1.084       .  S
C1177      C1178   1.421       .  A
C1177      N1182   1.438       .  S
C1178      C1179   1.407   1_565  A
C1179      C1180   1.410       .  A
C1179      H1183   1.083       .  S
C1180      N1184   1.438       .  S
N1182      H1185   1.046       .  S
N1182      H1186   1.045       .  S
N1184      H1187   1.045       .  S
N1184      H1188   1.046       .  S
C1193      C1194   1.407   1_545  A
C1193      C1198   1.402       .  A
C1194      C1195   1.408       .  A
C1194      N1199   1.437       .  S
C1195      C1196   1.405       .  A
C1195      H1200   1.083       .  S
C1196      C1201   1.483       .  S
C1196      C1197   1.408       .  A
C1197      C1198   1.405   1_565  A
C1197      N1202   1.437       .  S
C1198      H1203   1.084       .  S
N1199      H1219   1.045   1_565  S
N1199      H1220   1.047       .  S
C1201      C1204   1.405       .  A
C1201      C1208   1.414       .  A
N1202      H1217   1.047   1_565  S
N1202      H1218   1.045       .  S
C1204      C1205   1.407       .  A
C1204      H1209   1.084       .  S
C1205      C1206   1.410       .  A
C1205      N1210   1.438       .  S
C1206      C1207   1.406       .  A
C1207      C1208   1.403       .  A
C1207      H1211   1.084       .  S
C1208      N1212   1.438       .  S
N1210      H1213   1.045       .  S
N1210      H1214   1.046       .  S
N1212      H1215   1.045       .  S
N1212      H1216   1.043       .  S
C1221      C1222   1.415       .  A
C1221      C1226   1.411       .  A
C1222      C1223   1.406       .  A
C1222      N1227   1.433       .  S
C1223      C1224   1.401       .  A
C1223      H1228   1.084       .  S
C1224      C1229   1.488       .  S
C1224      C1225   1.409       .  A
C1225      C1226   1.412       .  A
C1225      N1230   1.437       .  S
C1226      H1231   1.083       .  S
N1227      H1247   1.046       .  S
N1227      H1248   1.045       .  S
C1229      C1232   1.402       .  A
C1229      C1236   1.409       .  A
N1230      H1245   1.046       .  S
N1230      H1246   1.045       .  S
C1232      C1233   1.412       .  A
C1232      H1237   1.084       .  S
C1233      C1234   1.417       .  A
C1233      N1238   1.437       .  S
C1234      C1235   1.409       .  A
C1235      C1236   1.408       .  A
C1235      H1239   1.084       .  S
C1236      N1240   1.438       .  S
N1238      H1241   1.045       .  S
N1238      H1242   1.046       .  S
N1240      H1243   1.046       .  S
N1240      H1244   1.045       .  S
C1249      C1250   1.410       .  A
C1249      C1254   1.402       .  A
C1250      C1251   1.408       .  A
C1250      N1255   1.432       .  S
C1251      C1252   1.405       .  A
C1251      H1256   1.084       .  S
C1252      C1257   1.494       .  S
C1252      C1253   1.414       .  A
C1253      C1254   1.407       .  A
C1253      N1258   1.438       .  S
C1254      H1259   1.084       .  S
N1255      H1275   1.045       .  S
N1255      H1276   1.045       .  S
C1257      C1260   1.407       .  A
C1257      C1264   1.413       .  A
N1258      H1273   1.046       .  S
N1258      H1274   1.045       .  S
C1260      C1261   1.404       .  A
C1260      H1265   1.084       .  S
C1261      C1262   1.404       .  A
C1261      N1266   1.432       .  S
C1262      C1263   1.404       .  A
C1263      C1264   1.411       .  A
C1263      H1267   1.083       .  S
C1264      N1268   1.437       .  S
N1266      H1269   1.046       .  S
N1266      H1270   1.046       .  S
N1268      H1271   1.047       .  S
N1268      H1272   1.044       .  S
C1277      C1278   1.409       .  A
C1277      C1282   1.410       .  A
C1278      C1279   1.401       .  A
C1278      N1283   1.432       .  S
C1279      C1280   1.404       .  A
C1279      H1284   1.084       .  S
C1280      C1285   1.491       .  S
C1280      C1281   1.410       .  A
C1281      C1282   1.412       .  A
C1281      N1286   1.437       .  S
C1282      H1287   1.083       .  S
N1283      H1303   1.045       .  S
N1283      H1304   1.046       .  S
C1285      C1288   1.409       .  A
C1285      C1292   1.409       .  A
N1286      H1301   1.045       .  S
N1286      H1302   1.046       .  S
C1288      C1289   1.414       .  A
C1288      H1293   1.084       .  S
C1289      C1290   1.409   1_545  A
C1289      N1294   1.437       .  S
C1290      C1291   1.403   1_565  A
C1291      C1292   1.403       .  A
C1291      H1295   1.084   1_545  S
C1292      N1296   1.438       .  S
N1294      H1297   1.046       .  S
N1294      H1298   1.045       .  S
N1296      H1299   1.045       .  S
N1296      H1300   1.046       .  S
C1305      C1306   1.418       .  A
C1305      C1310   1.410       .  A
C1306      C1307   1.408       .  A
C1306      N1311   1.432       .  S
C1307      C1308   1.400       .  A
C1307      H1312   1.084       .  S
C1308      C1313   1.486       .  S
C1308      C1309   1.409       .  A
C1309      C1310   1.408       .  A
C1309      N1314   1.438       .  S
C1310      H1315   1.083       .  S
N1311      H1331   1.046       .  S
N1311      H1332   1.045       .  S
C1313      C1316   1.400       .  A
C1313      C1320   1.409       .  A
N1314      H1329   1.044       .  S
N1314      H1330   1.047       .  S
C1316      C1317   1.406       .  A
C1316      H1321   1.084       .  S
C1317      C1318   1.418       .  A
C1317      N1322   1.439       .  S
C1318      C1319   1.408       .  A
C1319      C1320   1.412       .  A
C1319      H1323   1.083       .  S
C1320      N1324   1.437       .  S
N1322      H1325   1.045       .  S
N1322      H1326   1.046       .  S
N1324      H1327   1.045       .  S
N1324      H1328   1.046       .  S
C1333      C1334   1.421       .  A
C1333      C1338   1.407       .  A
C1334      C1335   1.403       .  A
C1334      N1339   1.433       .  S
C1335      C1336   1.398       .  A
C1335      H1340   1.084       .  S
C1336      C1341   1.483       .  S
C1336      C1337   1.409       .  A
C1337      C1338   1.409       .  A
C1337      N1342   1.437       .  S
C1338      H1343   1.083       .  S
N1339      H1359   1.046       .  S
N1339      H1360   1.045       .  S
C1341      C1344   1.398       .  A
C1341      C1348   1.410       .  A
N1342      H1357   1.045       .  S
N1342      H1358   1.046       .  S
C1344      C1345   1.395       .  A
C1344      H1349   1.084       .  S
C1345      C1346   1.422       .  A
C1345      N1350   1.434       .  S
C1346      C1347   1.407       .  A
C1347      C1348   1.411       .  A
C1347      H1351   1.083       .  S
C1348      N1352   1.437       .  S
N1350      H1353   1.046       .  S
N1350      H1354   1.044       .  S
N1352      H1355   1.046       .  S
N1352      H1356   1.045       .  S
C1361      C1362   1.415       .  A
C1361      C1366   1.408       .  A
C1362      C1363   1.402       .  A
C1362      N1367   1.438       .  S
C1363      C1364   1.401       .  A
C1363      H1368   1.084       .  S
C1364      C1369   1.472       .  S
C1364      C1365   1.404       .  A
C1365      C1366   1.401       .  A
C1365      N1370   1.438       .  S
C1366      H1371   1.083       .  S
N1367      H1387   1.045       .  S
N1367      H1388   1.046       .  S
C1369      C1372   1.405       .  A
C1369      C1376   1.406       .  A
N1370      H1385   1.046       .  S
N1370      H1386   1.045       .  S
C1372      C1373   1.406       .  A
C1372      H1377   1.084       .  S
C1373      C1374   1.407       .  A
C1373      N1378   1.437       .  S
C1374      C1375   1.404       .  A
C1375      C1376   1.396       .  A
C1375      H1379   1.085       .  S
C1376      N1380   1.438       .  S
N1378      H1381   1.046       .  S
N1378      H1382   1.046       .  S
N1380      H1383   1.046       .  S
N1380      H1384   1.046       .  S
C1389      C1390   1.411       .  A
C1389      C1394   1.401       .  A
C1390      C1391   1.408       .  A
C1390      N1395   1.438       .  S
C1391      C1392   1.405       .  A
C1391      H1396   1.083       .  S
C1392      C1397   1.492       .  S
C1392      C1393   1.414       .  A
C1393      C1394   1.407       .  A
C1393      N1398   1.438       .  S
C1394      H1399   1.084       .  S
N1395      H1415   1.045       .  S
N1395      H1416   1.046       .  S
C1397      C1400   1.407       .  A
C1397      C1404   1.413       .  A
N1398      H1413   1.046       .  S
N1398      H1414   1.045       .  S
C1400      C1401   1.406       .  A
C1400      H1405   1.084       .  S
C1401      C1402   1.406       .  A
C1401      N1406   1.437       .  S
C1402      C1403   1.403       .  A
C1403      C1404   1.408       .  A
C1403      H1407   1.084       .  S
C1404      N1408   1.438       .  S
N1406      H1409   1.045       .  S
N1406      H1410   1.046       .  S
N1408      H1411   1.046       .  S
N1408      H1412   1.046       .  S
C1417      C1418   1.416       .  A
C1417      C1422   1.405       .  A
C1418      C1419   1.411       .  A
C1418      N1423   1.437       .  S
C1419      C1420   1.404       .  A
C1419      H1424   1.084       .  S
C1420      C1425   1.493       .  S
C1420      C1421   1.412       .  A
C1421      C1422   1.407       .  A
C1421      N1426   1.438       .  S
C1422      H1427   1.084       .  S
N1423      H1443   1.045       .  S
N1423      H1444   1.046       .  S
C1425      C1428   1.402       .  A
C1425      C1432   1.415       .  A
N1426      H1441   1.046       .  S
N1426      H1442   1.045       .  S
C1428      C1429   1.406       .  A
C1428      H1433   1.084       .  S
C1429      C1430   1.414       .  A
C1429      N1434   1.439       .  S
C1430      C1431   1.401       .  A
C1431      C1432   1.412       .  A
C1431      H1435   1.084       .  S
C1432      N1436   1.437       .  S
N1434      H1437   1.045       .  S
N1434      H1438   1.045       .  S
N1436      H1439   1.045       .  S
N1436      H1440   1.046       .  S
C1445      C1446   1.418       .  A
C1445      C1450   1.408       .  A
C1446      C1447   1.410       .  A
C1446      N1451   1.437   1_565  S
C1447      C1448   1.401       .  A
C1447      H1452   1.084       .  S
C1448      C1453   1.480       .  S
C1448      C1449   1.406       .  A
C1449      C1450   1.401       .  A
C1449      N1454   1.439       .  S
C1450      H1455   1.083       .  S
N1451      H1471   1.045       .  S
N1451      H1472   1.046       .  S
C1453      C1456   1.402       .  A
C1453      C1460   1.408       .  A
N1454      H1469   1.046       .  S
N1454      H1470   1.046       .  S
C1456      C1457   1.405       .  A
C1456      H1461   1.084       .  S
C1457      C1458   1.413       .  A
C1457      N1462   1.438       .  S
C1458      C1459   1.406       .  A
C1459      C1460   1.405       .  A
C1459      H1463   1.084       .  S
C1460      N1464   1.438       .  S
N1462      H1465   1.045       .  S
N1462      H1466   1.046       .  S
N1464      H1467   1.046       .  S
N1464      H1468   1.045       .  S
C1473      C1474   1.416       .  A
C1473      C1478   1.408       .  A
C1474      C1475   1.412   1_545  A
C1474      N1479   1.438   1_545  S
C1475      C1476   1.407       .  A
C1475      H1480   1.084       .  S
C1476      C1481   1.495       .  S
C1476      C1477   1.410   1_565  A
C1477      C1478   1.406       .  A
C1477      N1482   1.438       .  S
C1478      H1483   1.083       .  S
N1479      H1499   1.046       .  S
N1479      H1500   1.045       .  S
C1481      C1484   1.408       .  A
C1481      C1488   1.412       .  A
N1482      H1497   1.046       .  S
N1482      H1498   1.045       .  S
C1484      C1485   1.413       .  A
C1484      H1489   1.083       .  S
C1485      C1486   1.410       .  A
C1485      N1490   1.437       .  S
C1486      C1487   1.405       .  A
C1487      C1488   1.405       .  A
C1487      H1491   1.084       .  S
C1488      N1492   1.438       .  S
N1490      H1493   1.045       .  S
N1490      H1494   1.045       .  S
N1492      H1495   1.045       .  S
N1492      H1496   1.046       .  S
C1501      C1502   1.419       .  A
C1501      C1506   1.407       .  A
C1502      C1503   1.413       .  A
C1502      N1507   1.437       .  S
C1503      C1504   1.405       .  A
C1503      H1508   1.083       .  S
C1504      C1509   1.493   1_655  S
C1504      C1505   1.411       .  A
C1505      C1506   1.403       .  A
C1505      N1510   1.439       .  S
C1506      H1511   1.083       .  S
N1507      H1527   1.045       .  S
N1507      H1528   1.046       .  S
C1509      C1512   1.405       .  A
C1509      C1516   1.412       .  A
N1510      H1525   1.045       .  S
N1510      H1526   1.046   1_655  S
C1512      C1513   1.409       .  A
C1512      H1517   1.084       .  S
C1513      C1514   1.413       .  A
C1513      N1518   1.437       .  S
C1514      C1515   1.409       .  A
C1515      C1516   1.408       .  A
C1515      H1519   1.083       .  S
C1516      N1520   1.438       .  S
N1518      H1521   1.046       .  S
N1518      H1522   1.045       .  S
N1520      H1523   1.046       .  S
N1520      H1524   1.045       .  S
C1529      C1530   1.413       .  A
C1529      C1534   1.408       .  A
C1530      C1531   1.414       .  A
C1530      N1535   1.436       .  S
C1531      C1532   1.406       .  A
C1531      H1536   1.083       .  S
C1532      C1537   1.485       .  S
C1532      C1533   1.406       .  A
C1533      C1534   1.401       .  A
C1533      N1538   1.439       .  S
C1534      H1539   1.084       .  S
N1535      H1555   1.038       .  S
N1535      H1556   1.053       .  S
C1537      C1540   1.399       .  A
C1537      C1544   1.412       .  A
N1538      H1553   1.045       .  S
N1538      H1554   1.046       .  S
C1540      C1541   1.398       .  A
C1540      H1545   1.084       .  S
C1541      C1542   1.412       .  A
C1541      N1546   1.432       .  S
C1542      C1543   1.405       .  A
C1543      C1544   1.413       .  A
C1543      H1547   1.083       .  S
C1544      N1548   1.437       .  S
N1546      H1549   1.045       .  S
N1546      H1550   1.046       .  S
N1548      H1551   1.046       .  S
N1548      H1552   1.046       .  S
C1557      C1558   1.416       .  A
C1557      C1562   1.408       .  A
C1558      C1559   1.413       .  A
C1558      N1563   1.437       .  S
C1559      C1560   1.407       .  A
C1559      H1564   1.083       .  S
C1560      C1565   1.497       .  S
C1560      C1561   1.411       .  A
C1561      C1562   1.406       .  A
C1561      N1566   1.438       .  S
C1562      H1567   1.083       .  S
N1563      H1583   1.046       .  S
N1563      H1584   1.045       .  S
C1565      C1568   1.404       .  A
C1565      C1572   1.410       .  A
N1566      H1581   1.047       .  S
N1566      H1582   1.044       .  S
C1568      C1569   1.409       .  A
C1568      H1573   1.084       .  S
C1569      C1570   1.418       .  A
C1569      N1574   1.438       .  S
C1570      C1571   1.411       .  A
C1571      C1572   1.411       .  A
C1571      H1575   1.083       .  S
C1572      N1576   1.438       .  S
N1574      H1577   1.046       .  S
N1574      H1578   1.045       .  S
N1576      H1579   1.046       .  S
N1576      H1580   1.045       .  S
C1585      C1586   1.411       .  A
C1585      C1590   1.407       .  A
C1586      C1587   1.403       .  A
C1586      N1591   1.433       .  S
C1587      C1588   1.402       .  A
C1587      H1592   1.084       .  S
C1588      C1593   1.478       .  S
C1588      C1589   1.406       .  A
C1589      C1590   1.406       .  A
C1589      N1594   1.437       .  S
C1590      H1595   1.083       .  S
N1591      H1611   1.045       .  S
N1591      H1612   1.046       .  S
C1593      C1596   1.404       .  A
C1593      C1600   1.407       .  A
N1594      H1609   1.046       .  S
N1594      H1610   1.045       .  S
C1596      C1597   1.407       .  A
C1596      H1601   1.084       .  S
C1597      C1598   1.408       .  A
C1597      N1602   1.437       .  S
C1598      C1599   1.404       .  A
C1599      C1600   1.405       .  A
C1599      H1603   1.084       .  S
C1600      N1604   1.437       .  S
N1602      H1605   1.044       .  S
N1602      H1606   1.046       .  S
N1604      H1607   1.046       .  S
N1604      H1608   1.046       .  S
C1613      C1614   1.415   1_565  A
C1613      C1618   1.407       .  A
C1614      C1615   1.404       .  A
C1614      N1619   1.439       .  S
C1615      C1616   1.402       .  A
C1615      H1620   1.084       .  S
C1616      C1621   1.483       .  S
C1616      C1617   1.408       .  A
C1617      C1618   1.408   1_545  A
C1617      N1622   1.437       .  S
C1618      H1623   1.083       .  S
N1619      H1639   1.046   1_545  S
N1619      H1640   1.045       .  S
C1621      C1624   1.401       .  A
C1621      C1628   1.408       .  A
N1622      H1637   1.045       .  S
N1622      H1638   1.046       .  S
C1624      C1625   1.408       .  A
C1624      H1629   1.084       .  S
C1625      C1626   1.416       .  A
C1625      N1630   1.437       .  S
C1626      C1627   1.407       .  A
C1627      C1628   1.404       .  A
C1627      H1631   1.083       .  S
C1628      N1632   1.438       .  S
N1630      H1633   1.046       .  S
N1630      H1634   1.046       .  S
N1632      H1635   1.046       .  S
N1632      H1636   1.045       .  S
C1641      C1642   1.410       .  A
C1641      C1646   1.405       .  A
C1642      C1643   1.409       .  A
C1642      N1647   1.432       .  S
C1643      C1644   1.406       .  A
C1643      H1648   1.084       .  S
C1644      C1649   1.488       .  S
C1644      C1645   1.410       .  A
C1645      C1646   1.402       .  A
C1645      N1650   1.439       .  S
C1646      H1651   1.084       .  S
N1647      H1667   1.045       .  S
N1647      H1668   1.046       .  S
C1649      C1652   1.404       .  A
C1649      C1656   1.408       .  A
N1650      H1665   1.045       .  S
N1650      H1666   1.046       .  S
C1652      C1653   1.409       .  A
C1652      H1657   1.084       .  S
C1653      C1654   1.417       .  A
C1653      N1658   1.437       .  S
C1654      C1655   1.410       .  A
C1655      C1656   1.405       .  A
C1655      H1659   1.083       .  S
C1656      N1660   1.438       .  S
N1658      H1661   1.046       .  S
N1658      H1662   1.045       .  S
N1660      H1663   1.046       .  S
N1660      H1664   1.046       .  S
C1669      C1670   1.410       .  A
C1669      C1674   1.403       .  A
C1670      C1671   1.406       .  A
C1670      N1675   1.438       .  S
C1671      C1672   1.405       .  A
C1671      H1676   1.084       .  S
C1672      C1677   1.481       .  S
C1672      C1673   1.410       .  A
C1673      C1674   1.401       .  A
C1673      N1678   1.438       .  S
C1674      H1679   1.084       .  S
N1675      H1695   1.046       .  S
N1675      H1696   1.045       .  S
C1677      C1680   1.399       .  A
C1677      C1684   1.411       .  A
N1678      H1693   1.046       .  S
N1678      H1694   1.045       .  S
C1680      C1681   1.397       .  A
C1680      H1685   1.084       .  S
C1681      C1682   1.414       .  A
C1681      N1686   1.438       .  S
C1682      C1683   1.406       .  A
C1683      C1684   1.409       .  A
C1683      H1687   1.083       .  S
C1684      N1688   1.437       .  S
N1686      H1689   1.045       .  S
N1686      H1690   1.046       .  S
N1688      H1691   1.045       .  S
N1688      H1692   1.046       .  S
