geometry optimzed in LAMMPS
_audit_creation_date              2020-12-01 
_audit_creation_method            'lammps2cif' 
_symmetry_space_group_name_H-M    'P1' 
_symmetry_Int_Tables_number       1 
_symmetry_cell_setting            triclinic 
loop_ 
_symmetry_equiv_pos_as_xyz 
  x,y,z 
_cell_length_a                    43.13651465 
_cell_length_b                    34.924789001751826 
_cell_length_c                    41.05353867352465 
_cell_angle_alpha                 89.69300749674211 
_cell_angle_beta                  98.43287306187547 
_cell_angle_gamma                 90.25005373481292 
loop_ 
_atom_site_label 
_atom_site_type_symbol 
_atom_site_fract_x 
_atom_site_fract_y 
_atom_site_fract_z 
_atom_site_charge 
Fe1        Fe  0.12051978  0.62349676  0.34777439     1.65800
Fe2        Fe  0.07492652  0.60910986  0.27609304     1.73200
Fe3        Fe  0.12374335  0.54025403  0.30726196     1.54400
O4          O  0.16822118  0.55499803  0.33213301    -0.81900
O5          O  0.04743325  0.56552281  0.28661138    -0.80200
O6          O  0.16666788  0.61723759  0.34285710    -0.84400
O7          O  0.12289341  0.57631187  0.38107770    -0.79200
O8          O  0.13814706  0.55395196  0.26344907    -0.81000
O9          O  0.05133948  0.64312302  0.30665052    -0.83700
C10         C  0.11562818  0.54065163  0.37820332     0.97000
C11         C  0.18163650  0.58616629  0.34242745     1.04500
O12         O  0.10699503  0.59129377  0.31047991    -1.12700
O13         O  0.10208042  0.65340372  0.26579554    -0.75200
O14         O  0.11972326  0.67321754  0.31684058    -0.78600
O15         O  0.10981879  0.52434414  0.35048585    -0.79300
C16         C  0.11503631  0.67852861  0.28541999     0.95900
O17         O  0.07534224  0.63107520  0.35672837    -0.77300
O18         O  0.09242394  0.57616187  0.23986559    -0.82500
C19         C  0.05318817  0.53168846  0.27919117     0.98500
C20         C  0.11768494  0.55783084  0.23822240     1.04500
O21         O  0.08104389  0.51858872  0.28214164    -0.78100
C22         C  0.05119480  0.64171692  0.33758376     1.02800
Fe23       Fe  0.37195261  0.63183100  0.39718668     1.65800
Fe24       Fe  0.41895718  0.61467845  0.46793555     1.73200
Fe25       Fe  0.37041101  0.54660005  0.43533603     1.54400
O26         O  0.32592385  0.56101323  0.41099810    -0.81900
O27         O  0.44648509  0.57196568  0.45573697    -0.80200
O28         O  0.32584970  0.62415418  0.40309864    -0.84400
O29         O  0.36907887  0.58600577  0.36224958    -0.79200
O30         O  0.35641592  0.55856040  0.47917975    -0.81000
O31         O  0.44150073  0.65057470  0.43758154    -0.83700
C32         C  0.37761472  0.55064896  0.36437863     0.97000
C33         C  0.31175277  0.59216830  0.40230089     1.04500
O34         O  0.38648933  0.59813067  0.43340347    -1.12700
O35         O  0.39205172  0.65821257  0.47997012    -0.75200
O36         O  0.37420796  0.68051207  0.42962685    -0.78600
O37         O  0.38368124  0.53368687  0.39178642    -0.79300
C38         C  0.38025114  0.68490170  0.46114528     0.95900
O39         O  0.41674921  0.64005318  0.38759339    -0.77300
O40         O  0.40211170  0.57510833  0.99934411    -0.82500
C41         C  0.44132246  0.53818396  0.46441689     0.98500
C42         C  0.37676388  0.55645903  0.00074477     1.04500
O43         O  0.41349929  0.52458811  0.45992539    -0.78100
C44         C  0.44134376  0.64944188  0.40661986     1.02800
Fe45       Fe  0.37099595  0.37464004  0.14570682     1.65800
Fe46       Fe  0.41889759  0.39507169  0.21452869     1.73200
Fe47       Fe  0.36935932  0.46144341  0.18043403     1.54400
O48         O  0.38235185  0.47236801  0.13604014    -0.81900
O49         O  0.40221015  0.43176125  0.24926055    -0.80200
O50         O  0.36543591  0.41864408  0.10954402    -0.84400
O51         O  0.32556812  0.38108095  0.15358608    -0.79200
O52         O  0.41279391  0.48496089  0.20318805    -0.81000
O53         O  0.39284854  0.35110549  0.22872020    -0.83700
C54         C  0.31060296  0.41232349  0.15072248     0.97000
C55         C  0.37418513  0.45377736  0.10986041     1.04500
O56         O  0.38571459  0.40993857  0.18036914    -1.12700
O57         O  0.44137683  0.35886312  0.18450505    -0.75200
O58         O  0.41542568  0.36763301  0.13465466    -0.78600
O59         O  0.32434862  0.44449309  0.15746190    -0.79300
C60         C  0.44027570  0.35857930  0.15326286     0.95900
O61         O  0.37540976  0.32717798  0.17905811    -0.77300
O62         O  0.44573216  0.43732472  0.19990908    -0.82500
C63         C  0.37732774  0.45156728  0.25001670     0.98500
C64         C  0.44066731  0.47162507  0.20631844     1.04500
O65         O  0.35609705  0.45247628  0.22539008    -0.78100
C66         C  0.38169329  0.32361710  0.21052805     1.02800
Fe67       Fe  0.12152660  0.37164247  0.09693363     1.65800
Fe68       Fe  0.06829339  0.38682787  0.03012216     1.73200
Fe69       Fe  0.12031200  0.45467826  0.05539105     1.54400
O70         O  0.11022995  0.47038648  0.09980154    -0.81900
O71         O  0.08518932  0.41729802  0.49185851    -0.80200
O72         O  0.12717147  0.41923840  0.12991229    -0.84400
O73         O  0.16612818  0.37829275  0.08633809    -0.79200
O74         O  0.07667949  0.47656589  0.03347363    -0.81000
O75         O  0.09202630  0.34062006  0.01673425    -0.83700
C76         C  0.18044348  0.41004226  0.08678869     0.97000
C77         C  0.11920080  0.45473281  0.12744049     1.04500
O78         O  0.10404402  0.40366353  0.06068193    -1.12700
O79         O  0.04752051  0.35486123  0.06469525    -0.75200
O80         O  0.07857843  0.36396883  0.11164934    -0.78600
O81         O  0.16587862  0.44070380  0.07741447    -0.79300
C82         C  0.05180105  0.35682009  0.09602422     0.95900
O83         O  0.11751810  0.32215147  0.06595565    -0.77300
O84         O  0.04408811  0.43150942  0.04436966    -0.82500
C85         C  0.10993106  0.43641830  0.48867326     0.98500
C86         C  0.04884009  0.46418372  0.03313106     1.04500
O87         O  0.13019467  0.44004546  0.01010034    -0.78100
C88         C  0.10839263  0.31658908  0.03500918     1.02800
Fe89       Fe  0.38231254  0.87258542  0.10149027     1.65800
Fe90       Fe  0.33219513  0.89137118  0.03354169     1.73200
Fe91       Fe  0.38045750  0.95990023  0.06641014     1.54400
O92         O  0.36676447  0.96959121  0.11054716    -0.81900
O93         O  0.34929166  0.93305840  0.49838351    -0.80200
O94         O  0.38490168  0.91669155  0.13781319    -0.84400
O95         O  0.42784207  0.88339904  0.09460490    -0.79200
O96         O  0.33693048  0.98131267  0.04309334    -0.81000
O97         O  0.35787575  0.84819738  0.01817036    -0.83700
C98         C  0.44089715  0.91611611  0.09810005     0.97000
C99         C  0.37457768  0.95126682  0.13708620     1.04500
O100        O  0.36595572  0.90725816  0.06684440    -1.12700
O101        O  0.31053306  0.85437294  0.06385368    -0.75200
O102        O  0.33833961  0.86147832  0.11280286    -0.78600
O103        O  0.42557766  0.94672216  0.09027617    -0.79300
C104        C  0.31278462  0.85318210  0.09512914     0.95900
O105        O  0.38025715  0.82572869  0.06706016    -0.77300
O106        O  0.30572365  0.93289226  0.04934062    -0.82500
C107        C  0.37447701  0.95241132  0.49779139     0.98500
C108        C  0.30951020  0.96690010  0.04060408     1.04500
O109        O  0.39402354  0.95127629  0.02157455    -0.78100
C110        C  0.37193461  0.82176608  0.03568479     1.02800
Fe111      Fe  0.12971323  0.87217599  0.15082424     1.65800
Fe112      Fe  0.18006092  0.88585595  0.21962400     1.73200
Fe113      Fe  0.13209826  0.95586916  0.19060849     1.54400
O114        O  0.14470829  0.96953519  0.14648754    -0.81900
O115        O  0.16522942  0.92007892  0.25702812    -0.80200
O116        O  0.12551606  0.91930306  0.11697758    -0.84400
O117        O  0.08469087  0.88026882  0.15977337    -0.79200
O118        O  0.17636671  0.97605428  0.21447344    -0.81000
O119        O  0.15331671  0.84242967  0.23246038    -0.83700
C120        C  0.07096981  0.91225614  0.15974228     0.97000
C121        C  0.13475798  0.95437911  0.11894039     1.04500
O122        O  0.14659639  0.90409906  0.18709062    -1.12700
O123        O  0.20076984  0.85121397  0.18691730    -0.75200
O124        O  0.17354194  0.86351735  0.13831669    -0.78600
O125        O  0.08620334  0.94312260  0.16766611    -0.79300
C126        C  0.19870800  0.85288481  0.15559998     0.95900
O127        O  0.13211728  0.82267419  0.18237664    -0.77300
O128        O  0.20721203  0.92833487  0.20655396    -0.82500
C129        C  0.14075200  0.93979121  0.25940913     0.98500
C130        C  0.20375833  0.96136983  0.21708449     1.04500
O131        O  0.11928390  0.94286825  0.23503329    -0.78100
C132        C  0.13900823  0.81740574  0.21372440     1.02800
Fe133      Fe  0.13144893  0.12977963  0.39713831     1.65800
Fe134      Fe  0.17894982  0.11425835  0.46719437     1.73200
Fe135      Fe  0.12982438  0.04555860  0.43751785     1.54400
O136        O  0.08467003  0.05992777  0.41443973    -0.81900
O137        O  0.20553578  0.07181602  0.45314074    -0.80200
O138        O  0.08551158  0.12227541  0.40312642    -0.84400
O139        O  0.12859881  0.08328237  0.36328958    -0.79200
O140        O  0.11712663  0.05794085  0.48214430    -0.81000
O141        O  0.20045738  0.15076119  0.43658174    -0.83700
C142        C  0.13607846  0.04769046  0.36615493     0.97000
C143        C  0.07080507  0.09090781  0.40441585     1.04500
O144        O  0.14582160  0.09703546  0.43393729    -1.12700
O145        O  0.15192070  0.15712107  0.47994096    -0.75200
O146        O  0.13294556  0.17846480  0.42927143    -0.78600
O147        O  0.14221712  0.03116461  0.39380832    -0.79300
C148        C  0.13833606  0.18247667  0.46086546     0.95900
O149        O  0.17631871  0.13839907  0.38687106    -0.77300
O150        O  0.15946855  0.08005764  0.00722908    -0.82500
C151        C  0.20110206  0.03833524  0.46297441     0.98500
C152        C  0.13457118  0.06054049  0.00862360     1.04500
O153        O  0.17348708  0.02434474  0.46083895    -0.78100
C154        C  0.20055774  0.14931577  0.40573252     1.02800
Fe155      Fe  0.38113484  0.13386443  0.35116697     1.65800
Fe156      Fe  0.33303026  0.11258112  0.28193034     1.73200
Fe157      Fe  0.37962177  0.04491999  0.32018182     1.54400
O158        O  0.42526826  0.06052401  0.34141426    -0.81900
O159        O  0.30322092  0.07220765  0.29479234    -0.80200
O160        O  0.42654109  0.12436228  0.34368948    -0.84400
O161        O  0.38597765  0.09229124  0.38932614    -0.79200
O162        O  0.39272852  0.04820849  0.27446819    -0.81000
O163        O  0.31128581  0.15075803  0.31093231    -0.83700
C164        C  0.37650964  0.05764034  0.39064757     0.97000
C165        C  0.44019724  0.09211526  0.34648192     1.04500
O166        O  0.36511490  0.09731637  0.31756128    -1.12700
O167        O  0.36109034  0.15463883  0.26760540    -0.75200
O168        O  0.37795356  0.17987847  0.31671697    -0.78600
O169        O  0.36671195  0.03835615  0.36529412    -0.79300
C170        C  0.37200190  0.18262912  0.28525026     0.95900
O171        O  0.33670114  0.14347399  0.36130835    -0.77300
O172        O  0.34916690  0.07416704  0.24851842    -0.82500
C173        C  0.30817325  0.03672703  0.29387774     0.98500
C174        C  0.37287366  0.05213149  0.24878857     1.04500
O175        O  0.33575191  0.02275026  0.29974656    -0.78100
C176        C  0.31191206  0.15190002  0.34203589     1.02800
C177        C  0.28616060  0.16177774  0.39181087    -0.06000
C178        C  0.28303103  0.16111015  0.35714716     0.00000
C179        C  0.25243405  0.16507934  0.33907913    -0.08600
C180        C  0.22637734  0.16351820  0.35630485    -0.06000
C181        C  0.22952310  0.15914606  0.39083320    -0.00100
C182        C  0.26023765  0.16073188  0.40908705    -0.08500
C183        C  0.26636888  0.15951453  0.44652817     0.61900
H184        H  0.30947997  0.16118997  0.40566647     0.12500
H185        H  0.20300847  0.16424393  0.34248657     0.12600
C186        C  0.24676389  0.17089768  0.30194406     0.62100
F187        F  0.29787200  0.16353231  0.45875428    -0.23100
F188        F  0.25649888  0.12479599  0.45763846    -0.20400
F189        F  0.25068339  0.18909942  0.45921667    -0.20100
F190        F  0.25448548  0.13820152  0.28617030    -0.20100
F191        F  0.26466496  0.20134088  0.29350601    -0.20500
F192        F  0.21569727  0.17914634  0.29046973    -0.23100
C193        C  0.48361719  0.07189292  0.38906389    -0.06000
C194        C  0.47418315  0.09116743  0.35913142     0.00000
C195        C  0.49676869  0.11092630  0.34364227    -0.08600
C196        C  0.02704699  0.11328418  0.36309602    -0.06000
C197        C  0.03676978  0.09060770  0.39119593    -0.00100
C198        C  0.01416685  0.06861964  0.40496736    -0.08500
C199        C  0.02288113  0.04454485  0.43584282     0.61900
H200        H  0.46586292  0.05744387  0.40073602     0.12500
H201        H  0.04456500  0.12960885  0.35255848     0.12600
C202        C  0.48785942  0.13077515  0.31059603     0.62100
F203        F  0.99664943  0.03038355  0.44770520    -0.23100
F204        F  0.03962189  0.06649150  0.46038779    -0.20400
F205        F  0.04083125  0.01372389  0.42902112    -0.20100
F206        F  0.46793024  0.16099586  0.31368069    -0.20100
F207        F  0.47301440  0.10495822  0.28800406    -0.20500
F208        F  0.51383411  0.14514011  0.29835901    -0.23100
C209        C  0.28728567  0.98575239  0.25657817    -0.06000
C210        C  0.28152043  0.01233392  0.28029011     0.00000
C211        C  0.25018652  0.02034877  0.28451895    -0.08600
C212        C  0.22572223  0.00538324  0.26173994    -0.06000
C213        C  0.23138079  0.97982833  0.23692840    -0.00100
C214        C  0.26289793  0.96820738  0.23547038    -0.08500
C215        C  0.27147081  0.93681368  0.21278434     0.61900
H216        H  0.31139800  0.97948928  0.25412435     0.12500
H217        H  0.20176856  0.01209391  0.26469903     0.12600
C218        C  0.24115514  0.04243813  0.31347330     0.62100
F219        F  0.30346311  0.93492162  0.21237894    -0.23100
F220        F  0.25712751  0.94318133  0.18083876    -0.20400
F221        F  0.26216557  0.90170728  0.22378317    -0.20100
F222        F  0.22460210  0.07482458  0.30218186    -0.20100
F223        F  0.26655343  0.05302622  0.33621859    -0.20500
F224        F  0.22216279  0.01958554  0.32976751    -0.23100
C225        C  0.11610004  0.99420632  0.28487267    -0.06000
C226        C  0.13907873  0.96506106  0.28849688     0.00000
C227        C  0.16113592  0.96411635  0.31780965    -0.08600
C228        C  0.15996774  0.99307803  0.34129566    -0.06000
C229        C  0.13753480  0.02258779  0.33721697    -0.00100
C230        C  0.11467618  0.02267912  0.30878688    -0.08500
C231        C  0.08814069  0.05156644  0.30416485     0.61900
H232        H  0.09914874  0.99505798  0.26268929     0.12500
H233        H  0.17686521  0.99280812  0.36358097     0.12600
C234        C  0.18557252  0.93271938  0.32511290     0.62100
F235        F  0.06711650  0.04462140  0.27593064    -0.23100
F236        F  0.10013828  0.08805607  0.30167149    -0.20400
F237        F  0.07177375  0.04975447  0.33069664    -0.20100
F238        F  0.20806873  0.93639257  0.30452232    -0.20100
F239        F  0.17128460  0.89719331  0.32079617    -0.20500
F240        F  0.20081434  0.93431617  0.35720679    -0.23100
C241        C  0.14635502  0.01759614  0.09498063    -0.06000
C242        C  0.13348680  0.98037328  0.08935783     0.00000
C243        C  0.11851095  0.97136602  0.05707713    -0.08600
C244        C  0.11854299  0.99912014  0.03192466    -0.06000
C245        C  0.13210750  0.03572553  0.03775364    -0.00100
C246        C  0.14536964  0.04554762  0.07011058    -0.08500
C247        C  0.15758571  0.08566233  0.07883897     0.61900
H248        H  0.15752445  0.02520223  0.11941585     0.12500
H249        H  0.10848547  0.99194159  0.00697639     0.12600
C250        C  0.10221309  0.93323795  0.04873696     0.62100
F251        F  0.16310547  0.09122558  0.11256603    -0.23100
F252        F  0.13570902  0.11245994  0.06554743    -0.20400
F253        F  0.20417569  0.07117488  0.55563107    -0.20100
F254        F  0.07861096  0.92795683  0.06779945    -0.20100
F255        F  0.12357603  0.90373171  0.05438030    -0.20500
F256        F  0.08871341  0.93140879  0.01601958    -0.23100
C257        C  0.25705388  0.96317617  0.00779964    -0.06000
C258        C  0.28151375  0.98676904  0.02338385     0.00000
C259        C  0.27713290  0.02939781  0.52050675    -0.08600
C260        C  0.25036688  0.04341493  0.50072717    -0.06000
C261        C  0.22838076  0.01927198  0.48208873    -0.00100
C262        C  0.22967808  0.97813076  0.98968996    -0.08500
C263        C  0.20477887  0.95110532  0.97269808     0.61900
H264        H  0.25970370  0.93239463  0.00930838     0.12500
H265        H  0.24573807  0.07381895  0.50066506     0.12600
C266        C  0.29790040  0.05725248  0.54203725     0.62100
F267        F  0.21471304  0.91340636  0.97442721    -0.23100
F268        F  0.20422923  0.96263611  0.43148449    -0.20400
F269        F  0.17811685  0.95326977  0.98764645    -0.20100
F270        F  0.32844559  0.05562527  0.53574413    -0.20100
F271        F  0.31347124  0.04675595  0.06819973    -0.20500
F272        F  0.28807300  0.09481568  0.53706059    -0.23100
C273        C  0.35160070  0.00545235  0.46279937    -0.06000
C274        C  0.37649418  0.97947765  0.47037600     0.00000
C275        C  0.40331779  0.98305125  0.45438954    -0.08600
C276        C  0.40351046  0.01153180  0.43001404    -0.06000
C277        C  0.37828980  0.03680496  0.42202284    -0.00100
C278        C  0.35220638  0.03439326  0.43898640    -0.08500
C279        C  0.32521813  0.06228366  0.43159119     0.61900
H280        H  0.33167939  0.00314176  0.47596502     0.12500
H281        H  0.42291170  0.01343847  0.41605166     0.12600
C282        C  0.43091111  0.95599446  0.46195764     0.62100
F283        F  0.30275096  0.05649598  0.45198155    -0.23100
F284        F  0.31103340  0.05816163  0.39934212    -0.20400
F285        F  0.33651754  0.09926632  0.43617451    -0.20100
F286        F  0.42047227  0.91848641  0.45911849    -0.20100
F287        F  0.44597786  0.96211384  0.49359418    -0.20500
F288        F  0.45260195  0.96134714  0.44058456    -0.23100
C289        C  0.40126403  0.98103479  0.18824408    -0.06000
C290        C  0.37312144  0.97319173  0.16762000     0.00000
C291        C  0.34546065  0.99256203  0.17283407    -0.08600
C292        C  0.34679827  0.01832878  0.19920283    -0.06000
C293        C  0.37496348  0.02680354  0.21983920    -0.00100
C294        C  0.40295977  0.00813709  0.21390282    -0.08500
C295        C  0.43481522  0.01763753  0.23330034     0.61900
H296        H  0.42231298  0.96691795  0.18308206     0.12500
H297        H  0.32549297  0.03223060  0.20379016     0.12600
C298        C  0.31454964  0.98654051  0.15036153     0.62100
F299        F  0.45905323  0.00273260  0.21865675    -0.23100
F300        F  0.43711560  0.00247728  0.26473907    -0.20400
F301        F  0.43887999  0.05693325  0.23497009    -0.20100
F302        F  0.30840344  0.94783600  0.14622864    -0.20100
F303        F  0.31594509  0.00300792  0.12004674    -0.20500
F304        F  0.28976017  0.00318541  0.16288289    -0.23100
C305        C  0.25630751  0.84147370  0.15908575    -0.06000
C306        C  0.22702629  0.84458629  0.13908577     0.00000
C307        C  0.22635189  0.84302111  0.10421560    -0.08600
C308        C  0.25490773  0.84344587  0.09119806    -0.06000
C309        C  0.28425716  0.84456346  0.11129311    -0.00100
C310        C  0.28487380  0.84117244  0.14608245    -0.08500
C311        C  0.31521368  0.83778624  0.17002169     0.61900
H312        H  0.25687794  0.84106229  0.18550118     0.12500
H313        H  0.25429792  0.84493168  0.06477579     0.12600
C314        C  0.19598501  0.84197526  0.08019452     0.62100
F315        F  0.30980682  0.82789059  0.20141159    -0.23100
F316        F  0.33105501  0.87240205  0.17222768    -0.20400
F317        F  0.33385374  0.80957252  0.15955669    -0.20100
F318        F  0.18188469  0.87751007  0.07890121    -0.20100
F319        F  0.17601173  0.81445332  0.08991681    -0.20500
F320        F  0.20102863  0.83289075  0.04859732    -0.23100
C321        C  0.48367571  0.89152247  0.13976466    -0.06000
C322        C  0.47413616  0.91837931  0.11463562     0.00000
C323        C  0.49587207  0.94687818  0.10760264    -0.08600
C324        C  0.02525041  0.94621460  0.12874863    -0.06000
C325        C  0.03662487  0.91401954  0.14740598    -0.00100
C326        C  0.01556404  0.88360167  0.15148258    -0.08500
C327        C  0.02526159  0.84911371  0.17333871     0.61900
H328        H  0.46673238  0.87070490  0.14587543     0.12500
H329        H  0.04149711  0.96931275  0.12599440     0.12600
C330        C  0.48730336  0.97707214  0.08123579     0.62100
F331        F  0.99955301  0.82823431  0.18006768    -0.23100
F332        F  0.04164530  0.86096427  0.20311578    -0.20400
F333        F  0.04382829  0.82507453  0.15785440    -0.20100
F334        F  0.46611994  0.00250895  0.09118666    -0.20100
F335        F  0.47426960  0.95952533  0.05241996    -0.20500
F336        F  0.51317913  0.99779197  0.07475906    -0.23100
C337        C  0.09503586  0.25092081  0.01412492    -0.06000
C338        C  0.11679857  0.28117108  0.01843092     0.00000
C339        C  0.14337879  0.28001832  0.00189186    -0.08600
C340        C  0.11104162  0.21318782  0.50272572    -0.06000
C341        C  0.12961833  0.21770146  0.47745978    -0.00100
C342        C  0.14445936  0.25336984  0.47384890    -0.08500
C343        C  0.16754755  0.25845025  0.44961947     0.61900
H344        H  0.07446602  0.25265052  0.02632768     0.12500
H345        H  0.10092961  0.18525253  0.50609054     0.12600
C346        C  0.16757072  0.31192907  0.00634641     0.62100
F347        F  0.18056700  0.29481973  0.45112078    -0.23100
F348        F  0.15256517  0.25250073  0.41791550    -0.20400
F349        F  0.19166772  0.23238884  0.45671152    -0.20100
F350        F  0.17948390  0.31524605  0.03937694    -0.20100
F351        F  0.15385472  0.34619914  0.99519666    -0.20500
F352        F  0.19227966  0.30498722  0.98917799    -0.23100
C353        C  0.36923247  0.28834319  0.25964464    -0.06000
C354        C  0.37730243  0.28647058  0.22764895     0.00000
C355        C  0.38496834  0.25034025  0.21539767    -0.08600
C356        C  0.38407503  0.21762996  0.23562843    -0.06000
C357        C  0.37617807  0.21956889  0.26771754    -0.00100
C358        C  0.36852346  0.25573381  0.27994370    -0.08500
C359        C  0.35904364  0.26017988  0.31394732     0.61900
H360        H  0.36370256  0.31608910  0.26889024     0.12500
H361        H  0.38954544  0.18986752  0.22637247     0.12600
C362        C  0.39487252  0.24617463  0.18157751     0.62100
F363        F  0.35017248  0.29730978  0.31967251    -0.23100
F364        F  0.38406007  0.25094837  0.33772904    -0.20400
F365        F  0.33391053  0.23642810  0.31712143    -0.20100
F366        F  0.42038403  0.26958680  0.17911057    -0.20100
F367        F  0.37029195  0.25616149  0.15754841    -0.20500
F368        F  0.40336445  0.20896218  0.17560107    -0.23100
C369        C  0.22546511  0.38129772  0.12334873    -0.06000
C370        C  0.21432472  0.41122964  0.10162816     0.00000
C371        C  0.23505250  0.44177118  0.09682998    -0.08600
C372        C  0.26573974  0.44145455  0.11442067    -0.06000
C373        C  0.27678838  0.41152141  0.13605149    -0.00100
C374        C  0.25622715  0.38063992  0.14052705    -0.08500
C375        C  0.26609829  0.34730190  0.16373588     0.61900
H376        H  0.20962178  0.35814704  0.12716636     0.12500
H377        H  0.28176289  0.46449830  0.11077573     0.12600
C378        C  0.22544873  0.47418890  0.07272226     0.62100
F379        F  0.24091189  0.32427126  0.16849278    -0.23100
F380        F  0.27941592  0.36097880  0.19417757    -0.20400
F381        F  0.28744060  0.32457418  0.15083582    -0.20100
F382        F  0.20373344  0.49732288  0.08457506    -0.20100
F383        F  0.21286009  0.45947516  0.04238915    -0.20500
F384        F  0.25067436  0.49690703  0.06805533    -0.23100
C385        C  0.99594940  0.36593145  0.16053015    -0.06000
C386        C  0.46927009  0.34985492  0.13829785     0.00000
C387        C  0.46913750  0.34228516  0.10416428    -0.08600
C388        C  0.49784011  0.34226290  0.09146757    -0.06000
C389        C  0.02466279  0.35175334  0.11483484    -0.00100
C390        C  0.02370121  0.36880215  0.14632484    -0.08500
C391        C  0.05062245  0.39252251  0.16424832     0.61900
H392        H  0.99445252  0.38008252  0.18364659     0.12500
H393        H  0.49753548  0.33887665  0.06523671     0.12600
C394        C  0.43916288  0.33399353  0.08075515     0.62100
F395        F  0.04319722  0.40896160  0.19273990    -0.23100
F396        F  0.05793668  0.42198797  0.14403732    -0.20400
F397        F  0.07655743  0.36960147  0.17322677    -0.20100
F398        F  0.42204258  0.36720323  0.07401699    -0.20100
F399        F  0.42141208  0.30701726  0.09463666    -0.20500
F400        F  0.44533107  0.31946656  0.05105550    -0.23100
C401        C  0.36994678  0.71966104  0.51126869    -0.06000
C402        C  0.37525019  0.72201162  0.47813758     0.00000
C403        C  0.38078474  0.75525039  0.96354328    -0.08600
C404        C  0.38038603  0.78778642  0.98402336    -0.06000
C405        C  0.37682735  0.78514611  0.01771610    -0.00100
C406        C  0.37007538  0.75203934  0.53178858    -0.08500
C407        C  0.36307540  0.74688979  0.56675074     0.61900
H408        H  0.36590355  0.69164911  0.52128651     0.12500
H409        H  0.38268385  0.81602066  0.97360919     0.12600
C410        C  0.38546349  0.76051394  0.92783570     0.62100
F411        F  0.35617351  0.70919087  0.57356331    -0.23100
F412        F  0.33751579  0.76890620  0.57137680    -0.20400
F413        F  0.38887365  0.75780903  0.58886592    -0.20100
F414        F  0.35951801  0.74682842  0.90733372    -0.20100
F415        F  0.41186371  0.74086137  0.92197147    -0.20500
F416        F  0.38939711  0.79863272  0.91991818    -0.25500
C417        C  0.35939598  0.53545028  0.30517254    -0.06000
C418        C  0.37924849  0.52673413  0.33443654     0.00000
C419        C  0.39808808  0.49308662  0.33540925    -0.08600
C420        C  0.39537663  0.46910538  0.30783885    -0.06000
C421        C  0.37523998  0.47720500  0.27879044    -0.00100
C422        C  0.35702081  0.51153406  0.27717510    -0.08500
C423        C  0.33547815  0.52380320  0.24621074     0.61900
H424        H  0.34504872  0.56085414  0.30469352     0.12500
H425        H  0.40909525  0.44312043  0.30899404     0.12600
C426        C  0.42006411  0.48047155  0.36578868     0.62100
F427        F  0.32133767  0.55868734  0.25004910    -0.23100
F428        F  0.31190190  0.49696389  0.23852653    -0.20400
F429        F  0.35249017  0.52761127  0.22030597    -0.20100
F430        F  0.40213618  0.46459748  0.38766803    -0.20100
F431        F  0.43745347  0.51112852  0.37995351    -0.20500
F432        F  0.44117546  0.45305460  0.35870287    -0.23100
C433        C  0.40249635  0.51238684  0.04286476    -0.06000
C434        C  0.37484810  0.53128949  0.02942125     0.00000
C435        C  0.34633181  0.52187923  0.04084665    -0.08600
C436        C  0.34670726  0.49387344  0.06574430    -0.06000
C437        C  0.37453418  0.47532522  0.07922948    -0.00100
C438        C  0.40295640  0.48466520  0.06765817    -0.08500
C439        C  0.43441554  0.46639105  0.08007177     0.61900
H440        H  0.42416690  0.51877917  0.03344881     0.12500
H441        H  0.32531577  0.48691888  0.07546304     0.12600
C442        C  0.31573190  0.53358794  0.52520510     0.62100
F443        F  0.44442049  0.44633908  0.05463120    -0.23100
F444        F  0.43364323  0.44140517  0.10612971    -0.20400
F445        F  0.45609993  0.49480305  0.09007559    -0.20100
F446        F  0.30748950  0.52325784  0.49261103    -0.20100
F447        F  0.31728545  0.57307784  0.52763376    -0.20500
F448        F  0.29225409  0.52114118  0.54221087    -0.23100
C449        C  0.49236934  0.54034209  0.50069546    -0.06000
C450        C  0.46803436  0.51751777  0.48386604     0.00000
C451        C  0.46831722  0.47341148  0.98557640    -0.08600
C452        C  0.99500908  0.46168114  0.00344370    -0.06000
C453        C  0.02142517  0.48438348  0.01504409    -0.00100
C454        C  0.02039669  0.52159773  0.51073414    -0.08500
C455        C  0.04756948  0.54773355  0.52411155     0.61900
H456        H  0.49006430  0.57112453  0.49966904     0.12500
H457        H  0.99554000  0.43143421  0.00926362     0.12600
C458        C  0.44357828  0.44550430  0.96987101     0.62100
F459        F  0.03999280  0.58607305  0.51951513    -0.23100
F460        F  0.07299967  0.54064068  0.50809164    -0.20400
F461        F  0.05664395  0.54677898  0.05250778    -0.20100
F462        F  0.44091513  0.45673258  0.43766281    -0.20100
F463        F  0.41551365  0.45177880  0.98142947    -0.20500
F464        F  0.45190766  0.40772042  0.97664564    -0.23100
C465        C  0.12418294  0.78410280  0.26283948    -0.06000
C466        C  0.13142254  0.78113786  0.23045681     0.00000
C467        C  0.13579808  0.74430494  0.21772983    -0.08600
C468        C  0.13164833  0.71198915  0.23737890    -0.06000
C469        C  0.12376075  0.71487675  0.26948935    -0.00100
C470        C  0.12059562  0.75175534  0.28275324    -0.08500
C471        C  0.11312239  0.75719025  0.31745132     0.61900
H472        H  0.12161030  0.81242829  0.27268347     0.12500
H473        H  0.13441395  0.68370925  0.22753121     0.12600
C474        C  0.14580350  0.73891825  0.18410037     0.62100
F475        F  0.11023853  0.79548036  0.32500764    -0.23100
F476        F  0.13698120  0.74197744  0.33992065    -0.20400
F477        F  0.08516707  0.73907943  0.32077475    -0.20100
F478        F  0.17344088  0.75865514  0.18258070    -0.20100
F479        F  0.12270225  0.75240812  0.15989998    -0.20500
F480        F  0.15085618  0.70077098  0.17757895    -0.23100
C481        C  0.13622887  0.48765602  0.46010536    -0.06000
C482        C  0.11187002  0.46016519  0.45836067     0.00000
C483        C  0.08883528  0.45971707  0.42968301    -0.08600
C484        C  0.09054985  0.48758430  0.40501609    -0.06000
C485        C  0.11423511  0.51569214  0.40750893    -0.00100
C486        C  0.13790756  0.51527972  0.43526729    -0.08500
C487        C  0.16534376  0.54310810  0.43838307     0.61900
H488        H  0.15393715  0.48812198  0.48167810     0.12500
H489        H  0.07301115  0.48781560  0.38326128     0.12600
C490        C  0.06240931  0.43038059  0.42452639     0.62100
F491        F  0.18711903  0.53561750  0.46592814    -0.23100
F492        F  0.15465868  0.58007025  0.44096195    -0.20400
F493        F  0.18046633  0.54040025  0.41102889    -0.20100
F494        F  0.04127529  0.43728798  0.44607677    -0.20100
F495        F  0.07447176  0.39382096  0.42953379    -0.20500
F496        F  0.04608265  0.43185412  0.39287657    -0.23100
C497        C  0.10265615  0.51457138  0.15234944    -0.06000
C498        C  0.12031980  0.48042707  0.15675179     0.00000
C499        C  0.14030545  0.47477007  0.18703384    -0.08600
C500        C  0.13972736  0.50177710  0.21239649    -0.06000
C501        C  0.12100838  0.53501076  0.20826526    -0.00100
C502        C  0.10349787  0.54252534  0.17696894    -0.08500
C503        C  0.08655961  0.58025795  0.16879979     0.61900
H504        H  0.08785175  0.51959841  0.12907640     0.12500
H505        H  0.15348614  0.49637912  0.23619073     0.12600
C506        C  0.16268738  0.44113512  0.19264623     0.62100
F507        F  0.07862772  0.58538602  0.13513437    -0.23100
F508        F  0.10578301  0.61049662  0.18056638    -0.20400
F509        F  0.05925772  0.58123305  0.18267714    -0.20100
F510        F  0.18161535  0.44044740  0.16820199    -0.20100
F511        F  0.14591487  0.40728985  0.19237886    -0.20500
F512        F  0.18205399  0.44348502  0.22261474    -0.23100
C513        C  0.22387768  0.60927964  0.38509496    -0.06000
C514        C  0.21530861  0.58650307  0.35694632     0.00000
C515        C  0.23871367  0.56539763  0.34406966    -0.08600
C516        C  0.26982896  0.56750041  0.36025298    -0.06000
C517        C  0.27823514  0.59047483  0.38817382    -0.00100
C518        C  0.25503165  0.61186415  0.40085802    -0.08500
C519        C  0.26305888  0.63685255  0.43110725     0.61900
H520        H  0.20578672  0.62514654  0.39482136     0.12500
H521        H  0.28811411  0.55163061  0.35083640     0.12600
C522        C  0.23126751  0.54181680  0.31291751     0.62100
F523        F  0.23646001  0.65098112  0.44199423    -0.23100
F524        F  0.28109279  0.66765086  0.42375013    -0.20400
F525        F  0.27959145  0.61580675  0.45650413    -0.20100
F526        F  0.21468260  0.56372245  0.28813754    -0.20100
F527        F  0.21365357  0.51010453  0.31897011    -0.20500
F528        F  0.25820178  0.52911041  0.30179365    -0.23100
C529        C  0.46693110  0.66099533  0.35687488    -0.06000
C530        C  0.47040725  0.65742779  0.39147329     0.00000
C531        C  0.00068278  0.65981762  0.40478608    -0.08600
C532        C  0.02620685  0.65762244  0.38690925    -0.06000
C533        C  0.02238216  0.65153381  0.35260702    -0.00100
C534        C  0.49255964  0.65977616  0.33915521    -0.08500
C535        C  0.48626433  0.66292284  0.30177468     0.61900
H536        H  0.44348866  0.66302452  0.34338347     0.12500
H537        H  0.04979217  0.65932215  0.40012167     0.12600
C538        C  0.00737865  0.66651067  0.44171509     0.62100
F539        F  0.45502320  0.67014872  0.29029287    -0.23100
F540        F  0.49404514  0.62913726  0.28763924    -0.20400
F541        F  0.50363861  0.69277879  0.29139159    -0.20100
F542        F  0.99995255  0.63407503  0.45843368    -0.20100
F543        F  0.99000110  0.69724145  0.44998643    -0.20500
F544        F  0.03865391  0.67484149  0.45216937    -0.23100
C545        C  0.02515548  0.50697566  0.22778531    -0.06000
C546        C  0.02668165  0.51041953  0.26199904     0.00000
C547        C  0.99997902  0.50309690  0.27719215    -0.08600
C548        C  0.46553190  0.50529156  0.25545670    -0.06000
C549        C  0.46772157  0.49286777  0.22346772    -0.00100
C550        C  0.49741281  0.49169649  0.21256677    -0.08500
C551        C  0.50090358  0.47922530  0.17793272     0.61900
H552        H  0.04579527  0.51385727  0.21667875     0.12500
H553        H  0.44280904  0.50443504  0.26371434     0.12600
C554        C  0.00158720  0.50483428  0.31432183     0.62100
F555        F  0.02383909  0.50441151  0.16077857    -0.23100
F556        F  0.47787500  0.49612963  0.15558123    -0.20400
F557        F  0.49828383  0.43988046  0.17542073    -0.20100
F558        F  0.00503882  0.54232081  0.32488568    -0.20100
F559        F  0.02684504  0.48363646  0.32915934    -0.20500
F560        F  0.45870528  0.52028905  0.31899951    -0.23100
Fe561      Fe  0.11971372  0.62747174  0.84623932     1.65800
Fe562      Fe  0.07252670  0.61240168  0.77547048     1.73200
Fe563      Fe  0.12073272  0.54301741  0.80723322     1.54400
O564        O  0.16592783  0.55688479  0.83038884    -0.81900
O565        O  0.04440847  0.57005101  0.78758006    -0.80200
O566        O  0.16576114  0.61920216  0.84097770    -0.84400
O567        O  0.12123985  0.58141153  0.88072042    -0.79200
O568        O  0.13388475  0.55477151  0.76243327    -0.81000
O569        O  0.05040861  0.64842655  0.80559292    -0.83700
C570        C  0.11331389  0.54590051  0.87851750     0.97000
C571        C  0.18013023  0.58766877  0.84028688     1.04500
O572        O  0.10496050  0.59464741  0.80971824    -1.12700
O573        O  0.10013975  0.65574189  0.76367820    -0.75200
O574        O  0.11926088  0.67612947  0.81415813    -0.78600
O575        O  0.10771260  0.52879083  0.85119590    -0.79300
C576        C  0.11348974  0.68124323  0.78274502     0.95900
O577        O  0.07493961  0.63713124  0.85554383    -0.77300
O578        O  0.08816668  0.57736134  0.73949118    -0.82500
C579        C  0.04963972  0.53559322  0.78152051     0.98500
C580        C  0.11275674  0.55780923  0.73767987     1.04500
O581        O  0.07732188  0.52204551  0.78431092    -0.78100
C582        C  0.05075095  0.64799438  0.83656430     1.02800
Fe583      Fe  0.37168824  0.62924674  0.89458907     1.65800
Fe584      Fe  0.41949704  0.60971351  0.96391699     1.73200
Fe585      Fe  0.36917714  0.54304935  0.93173224     1.54400
O586        O  0.32483174  0.55820425  0.90749310    -0.81900
O587        O  0.44470261  0.56590068  0.94941769    -0.80200
O588        O  0.32549655  0.62141794  0.90036285    -0.84400
O589        O  0.36879544  0.58413354  0.85923025    -0.79200
O590        O  0.35560168  0.55384368  0.97604937    -0.81000
O591        O  0.44256761  0.64501811  0.93399073    -0.83700
C592        C  0.37713360  0.54872064  0.86107127     0.97000
C593        C  0.31100488  0.58964198  0.89909870     1.04500
O594        O  0.38580936  0.59473662  0.93028261    -1.12700
O595        O  0.39491817  0.65464005  0.97768153    -0.75200
O596        O  0.37440009  0.67709568  0.92810195    -0.78600
O597        O  0.38246725  0.53103237  0.88816880    -0.79300
C598        C  0.38204560  0.68133863  0.95953937     0.95900
O599        O  0.41639499  0.63794616  0.88426869    -0.77300
O600        O  0.40235226  0.57913369  0.50361167    -0.82500
C601        C  0.43953663  0.53282484  0.95964556     0.98500
C602        C  0.37733469  0.55947007  0.50405066     1.04500
O603        O  0.41166263  0.51966810  0.95615038    -0.78100
C604        C  0.44151503  0.64600165  0.90298250     1.02800
Fe605      Fe  0.37041803  0.37073546  0.64496354     1.65800
Fe606      Fe  0.41805425  0.39148756  0.71377714     1.73200
Fe607      Fe  0.37122116  0.45884481  0.67707889     1.54400
O608        O  0.38587777  0.46658885  0.63303170    -0.81900
O609        O  0.40159627  0.43003246  0.74693289    -0.80200
O610        O  0.36575773  0.41371865  0.60758628    -0.84400
O611        O  0.32524683  0.37942479  0.65270504    -0.79200
O612        O  0.41483381  0.48116590  0.70031038    -0.81000
O613        O  0.39053854  0.34948339  0.72861301    -0.83700
C614        C  0.31116784  0.41127911  0.64919628     0.97000
C615        C  0.37638057  0.44805565  0.60714651     1.04500
O616        O  0.38581649  0.40659147  0.67885947    -1.12700
O617        O  0.43970998  0.35307276  0.68494049    -0.75200
O618        O  0.41472043  0.36192257  0.63457262    -0.78600
O619        O  0.32596113  0.44309384  0.65402572    -0.79300
C620        C  0.43893911  0.35187932  0.65376043     0.95900
O621        O  0.37400029  0.32404477  0.67941259    -0.77300
O622        O  0.44651293  0.43194169  0.69898773    -0.82500
C623        C  0.37724352  0.45103073  0.74675818     0.98500
C624        C  0.44229488  0.46661229  0.70483433     1.04500
O625        O  0.35663676  0.45285247  0.72162789    -0.78100
C626        C  0.37994509  0.32133685  0.71099894     1.02800
Fe627      Fe  0.12080471  0.36906456  0.59839439     1.65800
Fe628      Fe  0.07007312  0.38355216  0.52975491     1.73200
Fe629      Fe  0.11945614  0.45277565  0.55770101     1.54400
O630        O  0.10714726  0.46696592  0.60153830    -0.81900
O631        O  0.08264484  0.41952120  0.99082617    -0.80200
O632        O  0.12423419  0.41603013  0.63185070    -0.84400
O633        O  0.16592843  0.37734509  0.58987194    -0.79200
O634        O  0.07601840  0.47361020  0.53456645    -0.81000
O635        O  0.09603301  0.33924942  0.51715541    -0.83700
C636        C  0.17963491  0.40954278  0.59049877     0.97000
C637        C  0.11534804  0.45115849  0.62925684     1.04500
O638        O  0.10412659  0.40118024  0.56185940    -1.12700
O639        O  0.04904077  0.34924221  0.56265695    -0.75200
O640        O  0.07730973  0.35970533  0.61094020    -0.78600
O641        O  0.16461598  0.43984427  0.58107905    -0.79300
C642        C  0.05188857  0.34962624  0.59400506     0.95900
O643        O  0.11857998  0.31981708  0.56722337    -0.77300
O644        O  0.04368163  0.42692322  0.54285715    -0.82500
C645        C  0.10737498  0.43837788  0.98686600     0.98500
C646        C  0.04830105  0.46050638  0.53331083     1.04500
O647        O  0.13163262  0.43991708  0.51289221    -0.78100
C648        C  0.11117067  0.31475563  0.53597553     1.02800
Fe649      Fe  0.38072012  0.87580441  0.60258196     1.65800
Fe650      Fe  0.33323813  0.89510886  0.53287153     1.73200
Fe651      Fe  0.38070611  0.96276330  0.56705157     1.54400
O652        O  0.36656263  0.97237214  0.61053513    -0.81900
O653        O  0.34795943  0.92825617  0.99835342    -0.80200
O654        O  0.38312324  0.91999517  0.63887144    -0.84400
O655        O  0.42675551  0.88555627  0.59718854    -0.79200
O656        O  0.33720533  0.98447316  0.54324519    -0.81000
O657        O  0.36024230  0.85291809  0.51853700    -0.83700
C658        C  0.44018446  0.91810499  0.60016566     0.97000
C659        C  0.37369829  0.95498497  0.63752844     1.04500
O660        O  0.36591821  0.91053982  0.56730492    -1.12700
O661        O  0.31152678  0.85672761  0.56175627    -0.75200
O662        O  0.33603878  0.86572498  0.61216763    -0.78600
O663        O  0.42520962  0.94871065  0.59154707    -0.79300
C664        C  0.31179748  0.85623824  0.59278796     0.95900
O665        O  0.37868074  0.82891344  0.56822281    -0.77300
O666        O  0.30582110  0.93588974  0.54849122    -0.82500
C667        C  0.37270953  0.94824299  0.99701417     0.98500
C668        C  0.30970463  0.97005312  0.54017770     1.04500
O669        O  0.39532716  0.95437175  0.52275947    -0.78100
C670        C  0.37203998  0.82554457  0.53659834     1.02800
Fe671      Fe  0.12893324  0.87569572  0.64980126     1.65800
Fe672      Fe  0.18147079  0.88992787  0.71740857     1.73200
Fe673      Fe  0.13241419  0.95978927  0.68928134     1.54400
O674        O  0.14365681  0.97339321  0.64462593    -0.81900
O675        O  0.16695241  0.92340020  0.75558232    -0.80200
O676        O  0.12554577  0.92201684  0.61564540    -0.84400
O677        O  0.08460677  0.88502252  0.65963727    -0.79200
O678        O  0.17643321  0.98030352  0.71148481    -0.81000
O679        O  0.15548490  0.84520561  0.73052916    -0.83700
C680        C  0.07112552  0.91700316  0.66001919     0.97000
C681        C  0.13495699  0.95698037  0.61733723     1.04500
O682        O  0.14716713  0.90798246  0.68546658    -1.12700
O683        O  0.20206789  0.85674058  0.68380208    -0.75200
O684        O  0.17170522  0.86497221  0.63620428    -0.78600
O685        O  0.08647640  0.94765769  0.66770369    -0.79300
C686        C  0.19807805  0.85721556  0.65239027     0.95900
O687        O  0.13067709  0.82709076  0.68139967    -0.77300
O688        O  0.20843690  0.93309016  0.70443354    -0.82500
C689        C  0.14243868  0.94283228  0.75858938     0.98500
C690        C  0.20400812  0.96666014  0.71335318     1.04500
O691        O  0.12090320  0.94690127  0.73434605    -0.78100
C692        C  0.13911124  0.82116257  0.71233846     1.02800
Fe693      Fe  0.13053768  0.12821997  0.89928590     1.65800
Fe694      Fe  0.17641368  0.11434248  0.97092481     1.73200
Fe695      Fe  0.12873238  0.04428705  0.93996581     1.54400
O696        O  0.08401685  0.05771784  0.91527027    -0.81900
O697        O  0.20396780  0.07160566  0.95952128    -0.80200
O698        O  0.08441480  0.12014514  0.90425027    -0.84400
O699        O  0.12886164  0.08116269  0.86613242    -0.79200
O700        O  0.11401277  0.05691544  0.98351775    -0.81000
O701        O  0.19951236  0.14945316  0.94026909    -0.83700
C702        C  0.13659307  0.04565763  0.86911446     0.97000
C703        C  0.06994584  0.08858992  0.90536986     1.04500
O704        O  0.14443478  0.09610393  0.93670980    -1.12700
O705        O  0.14897936  0.15801699  0.98167158    -0.75200
O706        O  0.13046579  0.17759659  0.93037036    -0.78600
O707        O  0.14297492  0.02945448  0.89692517    -0.79300
C708        C  0.13515911  0.18248245  0.96185269     0.95900
O709        O  0.17579104  0.13736229  0.89019231    -0.77300
O710        O  0.16375332  0.07914978  0.50372107    -0.82500
C711        C  0.19929553  0.03804729  0.96894792     0.98500
C712        C  0.13876471  0.06052333  0.50641017     1.04500
O713        O  0.17171713  0.02384117  0.96542974    -0.78100
C714        C  0.19995512  0.14796573  0.90939514     1.02800
Fe715      Fe  0.38102631  0.13242072  0.85398264     1.65800
Fe716      Fe  0.33290209  0.11165369  0.78516559     1.73200
Fe717      Fe  0.37812824  0.04358779  0.82311598     1.54400
O718        O  0.42305256  0.05764645  0.84673153    -0.81900
O719        O  0.30365462  0.07122055  0.79881512    -0.80200
O720        O  0.42610490  0.12136968  0.84606605    -0.84400
O721        O  0.38455150  0.09000673  0.89149912    -0.79200
O722        O  0.39381628  0.04767886  0.77900414    -0.81000
O723        O  0.31068999  0.14941781  0.81418224    -0.83700
C724        C  0.37248887  0.05648825  0.89218585     0.97000
C725        C  0.43887492  0.08865789  0.85014711     1.04500
O726        O  0.36473370  0.09641165  0.82036502    -1.12700
O727        O  0.36058895  0.15398583  0.77067005    -0.75200
O728        O  0.37865087  0.17878641  0.81970972    -0.78600
O729        O  0.36196001  0.03820684  0.86650346    -0.79300
C730        C  0.37223146  0.18168124  0.78824378     0.95900
O731        O  0.33680823  0.14319966  0.86437125    -0.77300
O732        O  0.35032341  0.07322635  0.75246757    -0.82500
C733        C  0.30798572  0.03626154  0.79427733     0.98500
C734        C  0.37426219  0.05128417  0.75314184     1.04500
O735        O  0.33526570  0.02171371  0.79952790    -0.78100
C736        C  0.31170433  0.15098271  0.84535056     1.02800
C737        C  0.28598166  0.15872338  0.89556601    -0.06000
C738        C  0.28287154  0.15969296  0.86088167     0.00000
C739        C  0.25229959  0.16484557  0.84305124    -0.08600
C740        C  0.22620982  0.16322313  0.86030056    -0.06000
C741        C  0.22923217  0.15749229  0.89470313    -0.00100
C742        C  0.26002657  0.15740161  0.91286265    -0.08500
C743        C  0.26613520  0.15384033  0.95016689     0.61900
H744        H  0.30928471  0.15705385  0.90937436     0.12500
H745        H  0.20285810  0.16501309  0.84654005     0.12600
C746        C  0.24669695  0.17199055  0.80609225     0.62100
F747        F  0.29774401  0.15568749  0.96253357    -0.23100
F748        F  0.25503863  0.11901191  0.95953548    -0.20400
F749        F  0.25148339  0.18328368  0.96428271    -0.20100
F750        F  0.25322251  0.13939832  0.78943841    -0.20100
F751        F  0.26554730  0.20183753  0.79832463    -0.20500
F752        F  0.21591837  0.18197544  0.79501768    -0.23100
C753        C  0.48222310  0.06621370  0.89161521    -0.06000
C754        C  0.47280094  0.08645555  0.86220893     0.00000
C755        C  0.49553858  0.10488606  0.84605551    -0.08600
C756        C  0.02575650  0.11071400  0.86451248    -0.06000
C757        C  0.03589310  0.08796771  0.89242819    -0.00100
C758        C  0.01357802  0.06606172  0.90672035    -0.08500
C759        C  0.02271043  0.04268720  0.93793272     0.61900
H760        H  0.46442620  0.05194576  0.90330040     0.12500
H761        H  0.04304248  0.12721799  0.85376690     0.12600
C762        C  0.48689060  0.12334476  0.81239062     0.62100
F763        F  0.99669157  0.02925747  0.95064945    -0.23100
F764        F  0.04000561  0.06505887  0.96178877    -0.20400
F765        F  0.04029663  0.01145207  0.93129414    -0.20100
F766        F  0.46854795  0.15526015  0.81474898    -0.20100
F767        F  0.47046114  0.09738633  0.79100661    -0.20500
F768        F  0.51317593  0.13473393  0.79908215    -0.23100
C769        C  0.28676683  0.99705288  0.74723649    -0.06000
C770        C  0.28159668  0.01471326  0.77653601     0.00000
C771        C  0.25078208  0.01787229  0.78421040    -0.08600
C772        C  0.22583748  0.00458394  0.76122991    -0.06000
C773        C  0.23092294  0.98683204  0.73188706    -0.00100
C774        C  0.26193486  0.98263801  0.72470677    -0.08500
C775        C  0.26901581  0.96381709  0.69328022     0.61900
H776        H  0.31052915  0.99553169  0.74169373     0.12500
H777        H  0.20212684  0.00614916  0.76688828     0.12600
C778        C  0.24441716  0.03252468  0.81741843     0.62100
F779        F  0.29951332  0.97068818  0.68818455    -0.23100
F780        F  0.24927856  0.97809277  0.66638779    -0.20400
F781        F  0.26521114  0.92458085  0.69513928    -0.20100
F782        F  0.25196966  0.07081023  0.82116040    -0.20100
F783        F  0.26198021  0.01173515  0.84225620    -0.20500
F784        F  0.21321842  0.02865797  0.82103415    -0.23100
C785        C  0.11729669  0.99520859  0.78609837    -0.06000
C786        C  0.14027187  0.96612581  0.78881907     0.00000
C787        C  0.16149940  0.96319569  0.81865145    -0.08600
C788        C  0.15985881  0.99062339  0.84344372    -0.06000
C789        C  0.13781997  0.02063539  0.83994662    -0.00100
C790        C  0.11537886  0.02211741  0.81114532    -0.08500
C791        C  0.08865796  0.05078346  0.80718927     0.61900
H792        H  0.10079090  0.99740334  0.76365112     0.12500
H793        H  0.17637083  0.98907990  0.86598017     0.12600
C794        C  0.18572375  0.93147782  0.82491838     0.62100
F795        F  0.06770073  0.04454669  0.77876798    -0.23100
F796        F  0.10038882  0.08752699  0.80559743    -0.20400
F797        F  0.07223094  0.04773141  0.83360727    -0.20100
F798        F  0.20906542  0.93717412  0.80562920    -0.20100
F799        F  0.17154405  0.89629381  0.81777715    -0.20500
F800        F  0.19978173  0.93042513  0.85747715    -0.23100
C801        C  0.15667717  0.01265393  0.59088494    -0.06000
C802        C  0.13591751  0.98115062  0.58737573     0.00000
C803        C  0.11518759  0.97693148  0.55744675    -0.08600
C804        C  0.11618624  0.00447846  0.53237820    -0.06000
C805        C  0.13691008  0.03611343  0.53604706    -0.00100
C806        C  0.15724919  0.04056049  0.56624770    -0.08500
C807        C  0.17933420  0.07459780  0.57321460     0.61900
H808        H  0.17280055  0.01547913  0.61358064     0.12500
H809        H  0.10100536  0.00083385  0.50916806     0.12600
C810        C  0.09187125  0.94404196  0.55178807     0.62100
F811        F  0.19159746  0.07702307  0.60626310    -0.23100
F812        F  0.16338951  0.10830400  0.56460598    -0.20400
F813        F  0.18545695  0.09188169  0.06676024    -0.20100
F814        F  0.07261165  0.94398628  0.57591548    -0.20100
F815        F  0.10778296  0.90968088  0.55253569    -0.20500
F816        F  0.07293575  0.94681833  0.52156822    -0.23100
C817        C  0.25986778  0.96519920  0.50279205    -0.06000
C818        C  0.28206547  0.98936238  0.52147200     0.00000
C819        C  0.27843833  0.02698229  0.02096183    -0.08600
C820        C  0.25042600  0.04178241  0.00417313    -0.06000
C821        C  0.22650190  0.01825236  0.98768903    -0.00100
C822        C  0.23286842  0.97936239  0.48339072    -0.08500
C823        C  0.20974222  0.95184361  0.46428360     0.61900
H824        H  0.26384122  0.93461168  0.50330061     0.12500
H825        H  0.24714308  0.07243296  0.00362182     0.12600
C826        C  0.30428608  0.05447683  0.03522008     0.62100
F827        F  0.22082646  0.91462815  0.46590933    -0.23100
F828        F  0.19755235  0.96085345  0.93975324    -0.20400
F829        F  0.18188554  0.95206717  0.47719658    -0.20100
F830        F  0.32968231  0.05083112  0.01849000    -0.20100
F831        F  0.29658476  0.04815235  0.57444803    -0.20500
F832        F  0.29468078  0.09229827  0.03248859    -0.23100
C833        C  0.34617195  0.99623801  0.95891472    -0.06000
C834        C  0.37347612  0.97484781  0.96905249     0.00000
C835        C  0.40111516  0.98333123  0.95554871    -0.08600
C836        C  0.40061111  0.01360063  0.93285046    -0.06000
C837        C  0.37339329  0.03482530  0.92286488    -0.00100
C838        C  0.34563652  0.02611626  0.93583975    -0.08500
C839        C  0.31587235  0.04888250  0.92563874     0.61900
H840        H  0.32532625  0.98996789  0.96982944     0.12500
H841        H  0.42119583  0.01979739  0.92148813     0.12600
C842        C  0.43082960  0.96023534  0.96421605     0.62100
F843        F  0.29158438  0.03642310  0.94169122    -0.23100
F844        F  0.30625102  0.04558067  0.89214796    -0.20400
F845        F  0.32165575  0.08696800  0.93324130    -0.20100
F846        F  0.42388441  0.92160839  0.96565970    -0.20100
F847        F  0.44614694  0.97210779  0.99428935    -0.20500
F848        F  0.45089788  0.96515463  0.94109279    -0.23100
C849        C  0.39288880  0.96927780  0.69656490    -0.06000
C850        C  0.37248068  0.97827194  0.66776172     0.00000
C851        C  0.35380631  0.01200559  0.66729692    -0.08600
C852        C  0.35685649  0.03542106  0.69510585    -0.06000
C853        C  0.37700336  0.02666165  0.72398114    -0.00100
C854        C  0.39569028  0.99276683  0.72481877    -0.08500
C855        C  0.41845981  0.98072575  0.75497673     0.61900
H856        H  0.40726690  0.94396816  0.69647407     0.12500
H857        H  0.34315620  0.06137661  0.69432688     0.12600
C858        C  0.33090099  0.02471609  0.63758511     0.62100
F859        F  0.43441075  0.94755547  0.74958998    -0.23100
F860        F  0.40233380  0.97380827  0.78116615    -0.20400
F861        F  0.44059934  0.00919504  0.76311190    -0.20100
F862        F  0.31287544  0.99405575  0.62446857    -0.20100
F863        F  0.34762861  0.04026302  0.61439227    -0.20500
F864        F  0.31040660  0.05244346  0.64549015    -0.23100
C865        C  0.25274561  0.83414619  0.65158911    -0.06000
C866        C  0.22532744  0.85028124  0.63413705     0.00000
C867        C  0.22602643  0.86320519  0.60106607    -0.08600
C868        C  0.25425664  0.86071329  0.58781983    -0.06000
C869        C  0.28219215  0.84807408  0.60643725    -0.00100
C870        C  0.28126339  0.83318697  0.63856418    -0.08500
C871        C  0.31027534  0.81743649  0.65972627     0.61900
H872        H  0.25221939  0.82406328  0.67648561     0.12500
H873        H  0.25532125  0.87172448  0.56331087     0.12600
C874        C  0.19828308  0.88249685  0.58012501     0.62100
F875        F  0.30266432  0.79621426  0.68603554    -0.23100
F876        F  0.32947830  0.84732697  0.67221177    -0.20400
F877        F  0.32644781  0.79373612  0.64124519    -0.20100
F878        F  0.19006329  0.91495861  0.59591823    -0.20100
F879        F  0.17314296  0.85746386  0.57469529    -0.20500
F880        F  0.20506585  0.89392119  0.54957340    -0.23100
C881        C  0.48510164  0.88929984  0.63679895    -0.06000
C882        C  0.47367734  0.92015697  0.61624643     0.00000
C883        C  0.49386638  0.95210802  0.61357504    -0.08600
C884        C  0.02517572  0.95205894  0.63127253    -0.06000
C885        C  0.03686433  0.91899285  0.64845339    -0.00100
C886        C  0.01622708  0.88789114  0.65153767    -0.08500
C887        C  0.02628782  0.85240582  0.67200184     0.61900
H888        H  0.46938364  0.86587412  0.64028510     0.12500
H889        H  0.04112743  0.97573231  0.62946242     0.12600
C890        C  0.48289508  0.98843796  0.59487777     0.62100
F891        F  0.00080554  0.83059800  0.67795744    -0.23100
F892        F  0.04262284  0.86293080  0.70219983    -0.20400
F893        F  0.04498905  0.82962335  0.65553667    -0.20100
F894        F  0.46047435  0.00630088  0.61030150    -0.20100
F895        F  0.47052710  0.97969095  0.56277866    -0.20500
F896        F  0.50711977  0.01434913  0.59381970    -0.23100
C897        C  0.13864238  0.28398845  0.49437217    -0.06000
C898        C  0.11997815  0.27951676  0.51950805     0.00000
C899        C  0.10604216  0.24348022  0.52396659    -0.08600
C900        C  0.14737443  0.24851825  0.98147586    -0.06000
C901        C  0.12575541  0.21813382  0.97731308    -0.00100
C902        C  0.09945376  0.21891106  0.99437940    -0.08500
C903        C  0.07636406  0.18574073  0.99178544     0.61900
H904        H  0.14879951  0.31190748  0.49105030     0.12500
H905        H  0.16803851  0.24673063  0.96942463     0.12600
C906        C  0.08578195  0.23723765  0.55078963     0.62100
F907        F  0.05157098  0.19274115  0.00882630    -0.23100
F908        F  0.09130305  0.15287541  0.00468603    -0.20400
F909        F  0.06439254  0.17961888  0.95908850    -0.20100
F910        F  0.06062678  0.26208992  0.54629048    -0.20100
F911        F  0.10336197  0.24384171  0.58121022    -0.20500
F912        F  0.07416698  0.20020178  0.55071933    -0.23100
C913        C  0.36818144  0.28684603  0.76096874    -0.06000
C914        C  0.37627967  0.28447574  0.72896928     0.00000
C915        C  0.38511846  0.24834137  0.71768634    -0.08600
C916        C  0.38484002  0.21607733  0.73856237    -0.06000
C917        C  0.37658382  0.21844901  0.77047372    -0.00100
C918        C  0.36819900  0.25466701  0.78195810    -0.08500
C919        C  0.35861375  0.25947818  0.81586939     0.61900
H920        H  0.36199354  0.31461685  0.76963868     0.12500
H921        H  0.39096835  0.18826612  0.72992056     0.12600
C922        C  0.39567320  0.24374692  0.68422025     0.62100
F923        F  0.34937202  0.29657623  0.82113053    -0.23100
F924        F  0.38367408  0.25086054  0.83980047    -0.20400
F925        F  0.33372356  0.23542723  0.81927173    -0.20100
F926        F  0.42072361  0.26790196  0.68174179    -0.20100
F927        F  0.37119760  0.25240755  0.65964203    -0.20500
F928        F  0.40517396  0.20670794  0.67915646    -0.23100
C929        C  0.22514192  0.38205536  0.62695085    -0.06000
C930        C  0.21350419  0.41158702  0.60507480     0.00000
C931        C  0.23383497  0.44236384  0.59964107    -0.08600
C932        C  0.26524750  0.44137851  0.61521610    -0.06000
C933        C  0.27694052  0.41138482  0.63646059    -0.00100
C934        C  0.25624906  0.38151554  0.64308346    -0.08500
C935        C  0.26633569  0.34946750  0.66758377     0.61900
H936        H  0.20942806  0.35914989  0.63176391     0.12500
H937        H  0.28121829  0.46403868  0.61046230     0.12600
C938        C  0.22286292  0.47609561  0.57746113     0.62100
F939        F  0.24093823  0.32881593  0.67543658    -0.23100
F940        F  0.28198630  0.36459165  0.69652136    -0.20400
F941        F  0.28570614  0.32424422  0.65439199    -0.20100
F942        F  0.20121560  0.49725083  0.59139656    -0.20100
F943        F  0.20961252  0.46319142  0.54670896    -0.20500
F944        F  0.24723927  0.50042729  0.57318021    -0.23100
C945        C  0.99676103  0.34172296  0.65918736    -0.06000
C946        C  0.46770593  0.34122363  0.63941987     0.00000
C947        C  0.46746414  0.33316491  0.60543331    -0.08600
C948        C  0.49594585  0.33436351  0.59247123    -0.06000
C949        C  0.02417743  0.34054802  0.61110742    -0.00100
C950        C  0.02518567  0.34101848  0.64607859    -0.08500
C951        C  0.05562252  0.34245864  0.67006902     0.61900
H952        H  0.99737471  0.34528994  0.68544463     0.12500
H953        H  0.49540020  0.33124508  0.56616990     0.12600
C954        C  0.43753086  0.32432099  0.58220583     0.62100
F955        F  0.05076511  0.33516783  0.70213599    -0.23100
F956        F  0.06905117  0.37844205  0.66936284    -0.20400
F957        F  0.07615937  0.31496499  0.66196546    -0.20100
F958        F  0.42199846  0.35797608  0.57248465    -0.20100
F959        F  0.41824905  0.30054509  0.59748571    -0.20500
F960        F  0.44384545  0.30567490  0.55424126    -0.23100
C961        C  0.37372888  0.71574261  0.01076952    -0.06000
C962        C  0.37741049  0.71829289  0.97714411     0.00000
C963        C  0.38027077  0.75872410  0.46488748    -0.08600
C964        C  0.38082808  0.79111656  0.48555838    -0.06000
C965        C  0.37602420  0.78864822  0.51887499    -0.00100
C966        C  0.37327437  0.74819341  0.03119401    -0.08500
C967        C  0.36802080  0.74280749  0.06670819     0.61900
H968        H  0.37124486  0.68756531  0.02121087     0.12500
H969        H  0.38475001  0.81916181  0.47553505     0.12600
C970        C  0.38530005  0.76397919  0.42929303     0.62100
F971        F  0.36327752  0.70475229  0.07426145    -0.23100
F972        F  0.34182036  0.76305356  0.07229030    -0.20400
F973        F  0.39397234  0.75569744  0.08764650    -0.20100
F974        F  0.35906195  0.75137938  0.40861529    -0.20100
F975        F  0.41120839  0.74339822  0.42338071    -0.20500
F976        F  0.39023290  0.80199127  0.42168504    -0.25500
C977        C  0.36065467  0.53556348  0.80138730    -0.06000
C978        C  0.37927467  0.52548112  0.83107028     0.00000
C979        C  0.39725534  0.49112684  0.83231731    -0.08600
C980        C  0.39410458  0.46722828  0.80479173    -0.06000
C981        C  0.37515030  0.47666298  0.77531305    -0.00100
C982        C  0.35847771  0.51213517  0.77318168    -0.08500
C983        C  0.33886168  0.52609760  0.74153631     0.61900
H984        H  0.34715951  0.56168853  0.80068346     0.12500
H985        H  0.40676834  0.44042508  0.80625618     0.12600
C986        C  0.41923385  0.47801032  0.86262080     0.62100
F987        F  0.32649807  0.56213331  0.74500110    -0.23100
F988        F  0.31404074  0.50128410  0.73256390    -0.20400
F989        F  0.35720990  0.52839121  0.71663421    -0.20100
F990        F  0.40151072  0.46159826  0.88444542    -0.20100
F991        F  0.43662301  0.50842275  0.87720398    -0.20500
F992        F  0.44039154  0.45090746  0.85503278    -0.23100
C993        C  0.40410169  0.51409628  0.54497724    -0.06000
C994        C  0.37575145  0.53091269  0.53075306     0.00000
C995        C  0.34714202  0.51615911  0.53902115    -0.08600
C996        C  0.34818155  0.48550996  0.56170722    -0.06000
C997        C  0.37666186  0.46942965  0.57626059    -0.00100
C998        C  0.40507996  0.48354597  0.56738697    -0.08500
C999        C  0.43718360  0.46815482  0.58124390     0.61900
H1000       H  0.42599368  0.52440770  0.53807848     0.12500
H1001       H  0.32675769  0.47510572  0.56959286     0.12600
C1002       C  0.31568457  0.54113195  0.02705179     0.62100
F1003       F  0.45248033  0.45682083  0.55564583    -0.23100
F1004       F  0.43613431  0.43702540  0.60199527    -0.20400
F1005       F  0.45435559  0.49704901  0.59833782    -0.20100
F1006       F  0.30345847  0.52411594  0.99757377    -0.20100
F1007       F  0.32021299  0.57981902  0.02192956    -0.20500
F1008       F  0.29399552  0.53786013  0.04850889    -0.23100
C1009       C  0.48969258  0.53748551  0.99664615    -0.06000
C1010       C  0.46603540  0.51340746  0.98032926     0.00000
C1011       C  0.46998768  0.47724203  0.48731316    -0.08600
C1012       C  0.99432858  0.45952221  0.50414094    -0.06000
C1013       C  0.02078630  0.48167274  0.51654386    -0.00100
C1014       C  0.02131273  0.52367172  0.00685462    -0.08500
C1015       C  0.04866051  0.55020281  0.01872803     0.61900
H1016       H  0.48693427  0.56814387  0.99426045     0.12500
H1017       H  0.99491470  0.42893665  0.50841923     0.12600
C1018       C  0.44475303  0.45041831  0.47105783     0.62100
F1019       F  0.04147268  0.58823565  0.01168655    -0.23100
F1020       F  0.07413096  0.54104240  0.00340603    -0.20400
F1021       F  0.05580940  0.54158258  0.55757941    -0.20100
F1022       F  0.43969979  0.45028977  0.93621983    -0.20100
F1023       F  0.41688468  0.45661505  0.48304052    -0.20500
F1024       F  0.45248985  0.41224503  0.47651707    -0.23100
C1025       C  0.12723968  0.78711648  0.76254863    -0.06000
C1026       C  0.13053372  0.78508613  0.72887139     0.00000
C1027       C  0.12834102  0.74880183  0.71343410    -0.08600
C1028       C  0.12460327  0.71601048  0.73266848    -0.06000
C1029       C  0.12137591  0.71788115  0.76640230    -0.00100
C1030       C  0.12207424  0.75441351  0.78146172    -0.08500
C1031       C  0.11639313  0.75938167  0.81685329     0.61900
H1032       H  0.12852412  0.81500205  0.77407695     0.12500
H1033       H  0.12366181  0.68821018  0.72104145     0.12600
C1034       C  0.12993094  0.74430141  0.67691361     0.62100
F1035       F  0.11543717  0.79759147  0.82547370    -0.23100
F1036       F  0.14024961  0.74220182  0.83802044    -0.20400
F1037       F  0.08796217  0.74297799  0.82099615    -0.20100
F1038       F  0.15767355  0.75963700  0.66944175    -0.20100
F1039       F  0.10479013  0.76286874  0.65879951    -0.20500
F1040       F  0.12859569  0.70628590  0.66739759    -0.23100
C1041       C  0.13339324  0.49074219  0.95918176    -0.06000
C1042       C  0.10819344  0.46434505  0.95750862     0.00000
C1043       C  0.08361668  0.46725897  0.93028536    -0.08600
C1044       C  0.08579407  0.49563085  0.90607888    -0.06000
C1045       C  0.11090589  0.52177799  0.90809883    -0.00100
C1046       C  0.13505657  0.51951070  0.93526126    -0.08500
C1047       C  0.16292265  0.54667717  0.93861660     0.61900
H1048       H  0.15195463  0.48929646  0.97993491     0.12500
H1049       H  0.06764253  0.49770278  0.88492195     0.12600
C1050       C  0.05499777  0.44115890  0.92626130     0.62100
F1051       F  0.18440847  0.53872498  0.96628355    -0.23100
F1052       F  0.15274108  0.58387066  0.94123018    -0.20400
F1053       F  0.17813475  0.54370293  0.91134300    -0.20100
F1054       F  0.03717151  0.44833969  0.95086838    -0.20100
F1055       F  0.06425290  0.40324848  0.92759696    -0.20500
F1056       F  0.03594489  0.44691592  0.89643972    -0.23100
C1057       C  0.09530001  0.50901283  0.65374843    -0.06000
C1058       C  0.11485253  0.47653252  0.65845065     0.00000
C1059       C  0.13532235  0.47267609  0.68859074    -0.08600
C1060       C  0.13466303  0.50084536  0.71299602    -0.06000
C1061       C  0.11469534  0.53300682  0.70841724    -0.00100
C1062       C  0.09511421  0.53757357  0.67771315    -0.08500
C1063       C  0.07416129  0.57230202  0.66954218     0.61900
H1064       H  0.07963153  0.51196397  0.63074116     0.12500
H1065       H  0.14949054  0.49724585  0.73644318     0.12600
C1066       C  0.15815671  0.43957676  0.69507510     0.62100
F1067       F  0.06288144  0.57462526  0.63621553    -0.23100
F1068       F  0.09089212  0.60554625  0.67808952    -0.20400
F1069       F  0.04863948  0.57011828  0.68630133    -0.20100
F1070       F  0.17725999  0.43844619  0.67081477    -0.20100
F1071       F  0.14174923  0.40550610  0.69542184    -0.20500
F1072       F  0.17730026  0.44298917  0.72509451    -0.23100
C1073       C  0.22366167  0.61072855  0.88149775    -0.06000
C1074       C  0.21404842  0.58692866  0.85424470     0.00000
C1075       C  0.23655751  0.56321989  0.84234568    -0.08600
C1076       C  0.26787936  0.56455593  0.85821467    -0.06000
C1077       C  0.27730359  0.58870149  0.88519560    -0.00100
C1078       C  0.25485868  0.61194111  0.89729006    -0.08500
C1079       C  0.26358249  0.63689390  0.92744976     0.61900
H1080       H  0.20625987  0.62822013  0.89078683     0.12500
H1081       H  0.28551592  0.54702081  0.84935113     0.12600
C1082       C  0.22800187  0.53740562  0.81267486     0.62100
F1083       F  0.23747780  0.65318707  0.93770903    -0.23100
F1084       F  0.28323345  0.66620265  0.92042663    -0.20400
F1085       F  0.27861792  0.61500245  0.95316551    -0.20100
F1086       F  0.21246174  0.55827168  0.78656484    -0.20100
F1087       F  0.20896974  0.50782525  0.82051410    -0.20500
F1088       F  0.25426333  0.52137595  0.80250011    -0.23100
C1089       C  0.46650430  0.65998022  0.85307222    -0.06000
C1090       C  0.47025673  0.65513475  0.88758352     0.00000
C1091       C  0.00028097  0.66287996  0.90400854    -0.08600
C1092       C  0.02592890  0.66146569  0.88636087    -0.06000
C1093       C  0.02226479  0.65856986  0.85178296    -0.00100
C1094       C  0.49211613  0.66119515  0.83525675    -0.08500
C1095       C  0.48572139  0.66700523  0.79809972     0.61900
H1096       H  0.44297443  0.66134549  0.83970235     0.12500
H1097       H  0.04940688  0.66105085  0.89992409     0.12600
C1098       C  0.00686000  0.66669185  0.94125590     0.62100
F1099       F  0.45451401  0.67511695  0.78722996    -0.23100
F1100       F  0.49314528  0.63436074  0.78204905    -0.20400
F1101       F  0.50331181  0.69752711  0.78925649    -0.20100
F1102       F  0.99914392  0.63305300  0.95599632    -0.20100
F1103       F  0.98965857  0.69665971  0.95122630    -0.20500
F1104       F  0.03816634  0.67426222  0.95231166    -0.23100
C1105       C  0.02645207  0.49923654  0.73382992    -0.06000
C1106       C  0.02318457  0.51370973  0.76484190     0.00000
C1107       C  0.99355350  0.51405598  0.77559821    -0.08600
C1108       C  0.46541279  0.50337588  0.75318180    -0.06000
C1109       C  0.46935429  0.48728223  0.72281322    -0.00100
C1110       C  0.49997463  0.48365709  0.71440657    -0.08500
C1111       C  0.50581391  0.46571684  0.68228248     0.61900
H1112       H  0.04940593  0.49987717  0.72607555     0.12500
H1113       H  0.44205131  0.50422239  0.75988813     0.12600
C1114       C  0.99002869  0.52495510  0.81065626     0.62100
F1115       F  0.03550730  0.47701699  0.67236613    -0.23100
F1116       F  0.48496221  0.48031977  0.65657410    -0.20400
F1117       F  0.50217819  0.42649163  0.68378658    -0.20100
F1118       F  0.99504617  0.56367412  0.81565792    -0.20100
F1119       F  0.01142878  0.50470677  0.83253509    -0.20500
F1120       F  0.45588220  0.52220529  0.81533900    -0.23100
Fe1121     Fe  0.62027384  0.62581035  0.34982691     1.65800
Fe1122     Fe  0.57291046  0.61135811  0.27944205     1.73200
Fe1123     Fe  0.62095506  0.54196829  0.31023843     1.54400
O1124       O  0.66636213  0.55621548  0.33402448    -0.81900
O1125       O  0.54473021  0.56914686  0.29126492    -0.80200
O1126       O  0.66580059  0.61896618  0.34292226    -0.84400
O1127       O  0.62361282  0.57929836  0.38367774    -0.79200
O1128       O  0.63458682  0.55465507  0.26603419    -0.81000
O1129       O  0.55130957  0.64683966  0.31044568    -0.83700
C1130       C  0.61502002  0.54408569  0.38130029     0.97000
C1131       C  0.68036012  0.58753028  0.34321289     1.04500
O1132       O  0.60531129  0.59334181  0.31324108    -1.12700
O1133       O  0.60062823  0.65435731  0.26799311    -0.75200
O1134       O  0.61841917  0.67508699  0.31860227    -0.78600
O1135       O  0.60768538  0.52764338  0.35386086    -0.79300
C1136       C  0.61330618  0.68003809  0.28720470     0.95900
O1137       O  0.57573956  0.63358249  0.36007549    -0.77300
O1138       O  0.58871539  0.57698369  0.24311691    -0.82500
C1139       C  0.54931868  0.53497073  0.28397238     0.98500
C1140       C  0.61369289  0.55820863  0.24119829     1.04500
O1141       O  0.57700162  0.52106744  0.28640209    -0.78100
C1142       C  0.55156791  0.64498658  0.34139815     1.02800
Fe1143     Fe  0.87110892  0.63316667  0.39775719     1.65800
Fe1144     Fe  0.92020004  0.61334052  0.46643556     1.73200
Fe1145     Fe  0.86944096  0.54721587  0.43486573     1.54400
O1146       O  0.82486193  0.56257876  0.41129454    -0.81900
O1147       O  0.94541903  0.56980713  0.45163028    -0.80200
O1148       O  0.82511254  0.62589194  0.40488182    -0.84400
O1149       O  0.86693401  0.58786929  0.36224293    -0.79200
O1150       O  0.85657936  0.55802844  0.47944487    -0.81000
O1151       O  0.94281405  0.64837194  0.43546230    -0.83700
C1152       C  0.87575288  0.55260083  0.36397184     0.97000
C1153       C  0.81079406  0.59397279  0.40323884     1.04500
O1154       O  0.88599145  0.59867527  0.43326399    -1.12700
O1155       O  0.89581974  0.65830046  0.48060852    -0.75200
O1156       O  0.87509747  0.68117650  0.43120982    -0.78600
O1157       O  0.88228336  0.53546281  0.39114337    -0.79300
C1158       C  0.88314629  0.68525819  0.46261667     0.95900
O1159       O  0.91546529  0.64093820  0.38631445    -0.77300
O1160       O  0.90432596  0.57818313  0.99967367    -0.82500
C1161       C  0.94024689  0.53633345  0.46092849     0.98500
C1162       C  0.87903754  0.55971121  0.00175583     1.04500
O1163       O  0.91224865  0.52368295  0.45818849    -0.78100
C1164       C  0.94114756  0.64839324  0.40429371     1.02800
Fe1165     Fe  0.87054991  0.37624226  0.14585114     1.65800
Fe1166     Fe  0.91658318  0.39556699  0.21601721     1.73200
Fe1167     Fe  0.87214096  0.46456524  0.17811121     1.54400
O1168       O  0.88758082  0.47168511  0.13445166    -0.81900
O1169       O  0.90013709  0.43466549  0.24873360    -0.80200
O1170       O  0.86711642  0.41919432  0.10873298    -0.84400
O1171       O  0.82523751  0.38642411  0.15243755    -0.79200
O1172       O  0.91579509  0.48544121  0.20164688    -0.81000
O1173       O  0.88751486  0.35424456  0.22973830    -0.83700
C1174       C  0.81191161  0.41881248  0.14891068     0.97000
C1175       C  0.87760678  0.45354537  0.10851637     1.04500
O1176       O  0.88564397  0.41177064  0.18022049    -1.12700
O1177       O  0.93832737  0.35672237  0.18789782    -0.75200
O1178       O  0.91533086  0.36636702  0.13662315    -0.78600
O1179       O  0.82705975  0.45024299  0.15424838    -0.79300
C1180       C  0.93896768  0.35660863  0.15694343     0.95900
O1181       O  0.87246410  0.32946788  0.18001608    -0.77300
O1182       O  0.94661051  0.43479896  0.20216816    -0.82500
C1183       C  0.87627268  0.45658854  0.24810754     0.98500
C1184       C  0.94284377  0.46996853  0.20630360     1.04500
O1185       O  0.85655304  0.45975009  0.22234495    -0.78100
C1186       C  0.87720197  0.32634414  0.21160334     1.02800
Fe1187     Fe  0.62397459  0.37504269  0.09818038     1.65800
Fe1188     Fe  0.57256538  0.38899294  0.03069902     1.73200
Fe1189     Fe  0.62030341  0.45957474  0.05879102     1.54400
O1190       O  0.60842371  0.47204608  0.10301253    -0.81900
O1191       O  0.58522021  0.42059750  0.49414259    -0.80200
O1192       O  0.62765183  0.42134258  0.13217392    -0.84400
O1193       O  0.66847541  0.38467755  0.08847746    -0.79200
O1194       O  0.57555620  0.47880360  0.03686365    -0.81000
O1195       O  0.59977736  0.34680054  0.01687956    -0.83700
C1196       C  0.68167128  0.41722395  0.08928885     0.97000
C1197       C  0.61776032  0.45604838  0.13036602     1.04500
O1198       O  0.60643243  0.40735962  0.06242805    -1.12700
O1199       O  0.55309819  0.35271625  0.06335999    -0.75200
O1200       O  0.58067657  0.36540450  0.11141216    -0.78600
O1201       O  0.66633065  0.44771652  0.08093232    -0.79300
C1202       C  0.55522292  0.35521928  0.09456519     0.95900
O1203       O  0.62165781  0.32623748  0.06633697    -0.77300
O1204       O  0.54523339  0.43011899  0.04551504    -0.82500
C1205       C  0.61011401  0.43896814  0.49046893     0.98500
C1206       C  0.54835807  0.46402448  0.03612607     1.04500
O1207       O  0.63212260  0.44817243  0.01378596    -0.78100
C1208       C  0.61452991  0.32138593  0.03502448     1.02800
Fe1209     Fe  0.88061985  0.87306513  0.10410715     1.65800
Fe1210     Fe  0.82977496  0.89309058  0.03704612     1.73200
Fe1211     Fe  0.87890382  0.96061451  0.06961975     1.54400
O1212       O  0.86558676  0.97004399  0.11394849    -0.81900
O1213       O  0.84909172  0.93338298  0.50130727    -0.80200
O1214       O  0.88387105  0.91691380  0.14074863    -0.84400
O1215       O  0.92590310  0.88361102  0.09617096    -0.79200
O1216       O  0.83545985  0.98247220  0.04672341    -0.81000
O1217       O  0.85467357  0.84981844  0.02090531    -0.83700
C1218       C  0.93944127  0.91602132  0.09993056     0.97000
C1219       C  0.87349767  0.95146882  0.14033250     1.04500
O1220       O  0.86406985  0.90815931  0.06991523    -1.12700
O1221       O  0.80868137  0.85592151  0.06747139    -0.75200
O1222       O  0.83690051  0.86196151  0.11631468    -0.78600
O1223       O  0.92421622  0.94687763  0.09291576    -0.79300
C1224       C  0.81114623  0.85431597  0.09873326     0.95900
O1225       O  0.87782119  0.82664918  0.06921967    -0.77300
O1226       O  0.80418655  0.93471805  0.05406271    -0.82500
C1227       C  0.87347941  0.95444443  0.50095153     0.98500
C1228       C  0.80799293  0.96831197  0.04440368     1.04500
O1229       O  0.89178028  0.95212153  0.02445971    -0.78100
C1230       C  0.86900131  0.82313618  0.03787926     1.02800
Fe1231     Fe  0.62773469  0.87317503  0.15270081     1.65800
Fe1232     Fe  0.67841648  0.88695033  0.22117375     1.73200
Fe1233     Fe  0.63255124  0.95806557  0.19024129     1.54400
O1234       O  0.64583842  0.96890251  0.14598209    -0.81900
O1235       O  0.66426890  0.92301875  0.25757694    -0.80200
O1236       O  0.62403778  0.91904608  0.11785725    -0.84400
O1237       O  0.58333147  0.88308521  0.16245302    -0.79200
O1238       O  0.67717476  0.97704608  0.21376298    -0.81000
O1239       O  0.65031173  0.84507148  0.23450119    -0.83700
C1240       C  0.57048756  0.91567370  0.16120926     0.97000
C1241       C  0.63484899  0.95339289  0.11890361     1.04500
O1242       O  0.64559606  0.90560684  0.18818867    -1.12700
O1243       O  0.69807906  0.85069693  0.18898857    -0.75200
O1244       O  0.67116149  0.86312664  0.14026385    -0.78600
O1245       O  0.58645040  0.94635549  0.16749462    -0.79300
C1246       C  0.69626902  0.85270390  0.15770812     0.95900
O1247       O  0.62957081  0.82460530  0.18466136    -0.77300
O1248       O  0.70721585  0.92774206  0.20796717    -0.82500
C1249       C  0.64046739  0.94418466  0.25936036     0.98500
C1250       C  0.70423740  0.96138144  0.21742735     1.04500
O1251       O  0.61920427  0.94784301  0.23485702    -0.78100
C1252       C  0.63610248  0.81975737  0.21598784     1.02800
Fe1253     Fe  0.63196149  0.13342556  0.39759239     1.65800
Fe1254     Fe  0.67847471  0.11818105  0.46881849     1.73200
Fe1255     Fe  0.63079078  0.04878622  0.43737317     1.54400
O1256       O  0.58588008  0.06248219  0.41302449    -0.81900
O1257       O  0.70649380  0.07598357  0.45687290    -0.80200
O1258       O  0.58571985  0.12498340  0.40202342    -0.84400
O1259       O  0.63040379  0.08750949  0.36372720    -0.79200
O1260       O  0.61664484  0.05957779  0.48170673    -0.81000
O1261       O  0.70092116  0.15449153  0.43876404    -0.83700
C1262       C  0.63845090  0.05218181  0.36641130     0.97000
C1263       C  0.57159074  0.09314995  0.40280540     1.04500
O1264       O  0.64620415  0.10063671  0.43462976    -1.12700
O1265       O  0.65061646  0.16082607  0.48018102    -0.75200
O1266       O  0.63228383  0.18184116  0.42927344    -0.78600
O1267       O  0.64482748  0.03568375  0.39407610    -0.79300
C1268       C  0.63724942  0.18598630  0.46076675     0.95900
O1269       O  0.67688297  0.14300731  0.38873488    -0.77300
O1270       O  0.66074708  0.07592325  0.00509655    -0.82500
C1271       C  0.70167800  0.04229453  0.46603755     0.98500
C1272       C  0.63591081  0.05644045  0.00685911     1.04500
O1273       O  0.67404985  0.02818685  0.46205667    -0.78100
C1274       C  0.70095525  0.15383954  0.40785557     1.02800
Fe1275     Fe  0.88015823  0.13575447  0.35332620     1.65800
Fe1276     Fe  0.83264500  0.11411949  0.28385435     1.73200
Fe1277     Fe  0.87870914  0.04662000  0.32290406     1.54400
O1278       O  0.92404949  0.06252268  0.34468310    -0.81900
O1279       O  0.80257982  0.07360634  0.29605201    -0.80200
O1280       O  0.92549326  0.12637896  0.34565930    -0.84400
O1281       O  0.88517722  0.09396915  0.39167217    -0.79200
O1282       O  0.89256489  0.04970138  0.27756142    -0.81000
O1283       O  0.81077400  0.15233407  0.31279235    -0.83700
C1284       C  0.87515505  0.05950486  0.39311078     0.97000
C1285       C  0.93907220  0.09411488  0.34923124     1.04500
O1286       O  0.86427354  0.09900325  0.31983616    -1.12700
O1287       O  0.86077060  0.15626388  0.26982910    -0.75200
O1288       O  0.87629945  0.18224489  0.31886212    -0.78600
O1289       O  0.86504220  0.04041159  0.36773512    -0.79300
C1290       C  0.87034779  0.18489021  0.28734795     0.95900
O1291       O  0.83587413  0.14511959  0.36338928    -0.77300
O1292       O  0.84930629  0.07552671  0.25091396    -0.82500
C1293       C  0.80755074  0.03810176  0.29525502     0.98500
C1294       C  0.87287693  0.05312991  0.25171918     1.04500
O1295       O  0.83510497  0.02417892  0.30179416    -0.78100
C1296       C  0.81136214  0.15395719  0.34390137     1.02800
C1297       C  0.78617924  0.16702098  0.39347245    -0.06000
C1298       C  0.78277597  0.16446845  0.35883922     0.00000
C1299       C  0.75215506  0.16774274  0.34078886    -0.08600
C1300       C  0.72631928  0.16729422  0.35824054    -0.06000
C1301       C  0.72969746  0.16412934  0.39287638    -0.00100
C1302       C  0.76039966  0.16679300  0.41094616    -0.08500
C1303       C  0.76665967  0.16764338  0.44837532     0.61900
H1304       H  0.80957111  0.16700814  0.40721183     0.12500
H1305       H  0.70291101  0.16757476  0.34451164     0.12600
C1306       C  0.74617824  0.17135545  0.30344436     0.62100
F1307       F  0.79805674  0.17354156  0.46022202    -0.23100
F1308       F  0.75793699  0.13313184  0.46095612    -0.20400
F1309       F  0.75006134  0.19717633  0.45992612    -0.20100
F1310       F  0.75457858  0.13807899  0.28901416    -0.20100
F1311       F  0.76331258  0.20174582  0.29359368    -0.20500
F1312       F  0.71489887  0.17808588  0.29176788    -0.23100
C1313       C  0.98264746  0.07014618  0.38991160    -0.06000
C1314       C  0.97303756  0.09298248  0.36198461     0.00000
C1315       C  0.99556553  0.11483842  0.34813645    -0.08600
C1316       C  0.52821311  0.11092682  0.35896788    -0.06000
C1317       C  0.53773150  0.09174149  0.38901559    -0.00100
C1318       C  0.51503729  0.07216252  0.40456784    -0.08500
C1319       C  0.52357599  0.05349304  0.43815455     0.61900
H1320       H  0.96500015  0.05383082  0.40021313     0.12500
H1321       H  0.54581285  0.12577892  0.34735190     0.12600
C1322       C  0.98669479  0.13858603  0.31707035     0.62100
F1323       F  0.49731054  0.04087008  0.45085616    -0.23100
F1324       F  0.53909029  0.07967655  0.45999621    -0.20400
F1325       F  0.54269183  0.02227019  0.43584505    -0.20100
F1326       F  0.96803026  0.16894595  0.32335914    -0.20100
F1327       F  0.97056539  0.11599594  0.29260839    -0.20500
F1328       F  0.01280919  0.15341884  0.30539746    -0.23100
C1329       C  0.78734287  0.98583684  0.25861431    -0.06000
C1330       C  0.78104833  0.01354645  0.28126887     0.00000
C1331       C  0.74947408  0.02192174  0.28432209    -0.08600
C1332       C  0.72552980  0.00633945  0.26135147    -0.06000
C1333       C  0.73171989  0.97978988  0.23755290    -0.00100
C1334       C  0.76328755  0.96754792  0.23749698    -0.08500
C1335       C  0.77214883  0.93476617  0.21637559     0.61900
H1336       H  0.81157098  0.97915557  0.25705414     0.12500
H1337       H  0.70144296  0.01347592  0.26339804     0.12600
C1338       C  0.73937450  0.04490049  0.31223666     0.62100
F1339       F  0.80426567  0.93191785  0.21724142    -0.23100
F1340       F  0.75893129  0.93993638  0.18389370    -0.20400
F1341       F  0.76181708  0.90053722  0.22813603    -0.20100
F1342       F  0.72239629  0.07641960  0.29953816    -0.20100
F1343       F  0.76405589  0.05691873  0.33524795    -0.20500
F1344       F  0.72029967  0.02223146  0.32859580    -0.23100
C1345       C  0.62033989  0.00296163  0.28279371    -0.06000
C1346       C  0.63966642  0.97023232  0.28797230     0.00000
C1347       C  0.65941438  0.96601162  0.31855753    -0.08600
C1348       C  0.65921628  0.99476335  0.34231613    -0.06000
C1349       C  0.63984844  0.02733434  0.33723575    -0.00100
C1350       C  0.61988415  0.03149294  0.30683349    -0.08500
C1351       C  0.59746725  0.06499053  0.29989412     0.61900
H1352       H  0.60562325  0.00653633  0.25928330     0.12500
H1353       H  0.67456760  0.99185936  0.36553735     0.12600
C1354       C  0.68048240  0.93142680  0.32676260     0.62100
F1355       F  0.57906288  0.06217358  0.26939075    -0.23100
F1356       F  0.61422282  0.09888641  0.30035971    -0.20400
F1357       F  0.57763320  0.06607348  0.32344459    -0.20100
F1358       F  0.70513346  0.93277778  0.30870244    -0.20100
F1359       F  0.66342044  0.89807350  0.31977990    -0.20500
F1360       F  0.69309311  0.93021493  0.35977016    -0.23100
C1361       C  0.65116180  0.01299191  0.09295002    -0.06000
C1362       C  0.63423573  0.97815932  0.08880056     0.00000
C1363       C  0.61580673  0.97089810  0.05780261    -0.08600
C1364       C  0.61614561  0.99809884  0.03226527    -0.06000
C1365       C  0.63347630  0.03254780  0.03660890    -0.00100
C1366       C  0.65043493  0.04067347  0.06797537    -0.08500
C1367       C  0.66730307  0.07859708  0.07578808     0.61900
H1368       H  0.66534611  0.01889891  0.11637234     0.12500
H1369       H  0.60328603  0.99203850  0.00817496     0.12600
C1370       C  0.59567680  0.93514049  0.05128475     0.62100
F1371       F  0.67512490  0.08397317  0.10939610    -0.23100
F1372       F  0.64813496  0.10863374  0.06358870    -0.20400
F1373       F  0.70227918  0.07495202  0.55602956    -0.20100
F1374       F  0.57426025  0.93317202  0.07320939    -0.20100
F1375       F  0.61444623  0.90295223  0.05463291    -0.20500
F1376       F  0.57895026  0.93495705  0.01979655    -0.23100
C1377       C  0.75545999  0.96339045  0.01176207    -0.06000
C1378       C  0.78037045  0.98744076  0.02561886     0.00000
C1379       C  0.77909028  0.03061716  0.52161927    -0.08600
C1380       C  0.75233347  0.04569619  0.50242508    -0.06000
C1381       C  0.72837986  0.02236317  0.48576516    -0.00100
C1382       C  0.72880027  0.97742375  0.99169118    -0.08500
C1383       C  0.70299390  0.94969683  0.97772336     0.61900
H1384       H  0.75708616  0.93289904  0.01636674     0.12500
H1385       H  0.75007041  0.07644517  0.50017507     0.12600
C1386       C  0.80457302  0.05798615  0.53708770     0.62100
F1387       F  0.71145566  0.91189732  0.98413831    -0.23100
F1388       F  0.70045550  0.96399022  0.43867849    -0.20400
F1389       F  0.67630409  0.95647583  0.99178808    -0.20100
F1390       F  0.83149234  0.05308938  0.52304891    -0.20100
F1391       F  0.81089472  0.05068338  0.06704435    -0.20500
F1392       F  0.79575899  0.09594716  0.53256165    -0.23100
C1393       C  0.84922230  0.00499350  0.46376412    -0.06000
C1394       C  0.87509539  0.98086016  0.47289565     0.00000
C1395       C  0.90243183  0.98595075  0.45797389    -0.08600
C1396       C  0.90255397  0.01468584  0.43372744    -0.06000
C1397       C  0.87658767  0.03858354  0.42455462    -0.00100
C1398       C  0.84964803  0.03411766  0.44001899    -0.08500
C1399       C  0.82157790  0.06016466  0.43121208     0.61900
H1400       H  0.82867867  0.00116562  0.47576478     0.12500
H1401       H  0.92248793  0.01768539  0.42066567     0.12600
C1402       C  0.93051633  0.95974100  0.46618824     0.62100
F1403       F  0.79819756  0.05238176  0.45005718    -0.23100
F1404       F  0.80915520  0.05561625  0.39845586    -0.20400
F1405       F  0.83090781  0.09782928  0.43651155    -0.20100
F1406       F  0.92091182  0.92197252  0.46245164    -0.20100
F1407       F  0.94451668  0.96552476  0.49826350    -0.20500
F1408       F  0.95286683  0.96634104  0.44580253    -0.23100
C1409       C  0.89991766  0.97876509  0.19273808    -0.06000
C1410       C  0.87206974  0.97310090  0.17103603     0.00000
C1411       C  0.84496475  0.99403420  0.17565884    -0.08600
C1412       C  0.84680723  0.02014595  0.20177495    -0.06000
C1413       C  0.87479669  0.02685525  0.22328644    -0.00100
C1414       C  0.90204074  0.00553528  0.21870404    -0.08500
C1415       C  0.93357231  0.01131787  0.24013255     0.61900
H1416       H  0.92046235  0.96305411  0.18826012     0.12500
H1417       H  0.82596176  0.03570684  0.20543794     0.12600
C1418       C  0.81409611  0.98949791  0.15278358     0.62100
F1419       F  0.95746278  0.99254788  0.22765371    -0.23100
F1420       F  0.93249469  0.99704927  0.27143312    -0.20400
F1421       F  0.94109908  0.04987408  0.24181885    -0.20100
F1422       F  0.80749032  0.95112813  0.14706736    -0.20100
F1423       F  0.81589688  0.00769426  0.12319714    -0.20500
F1424       F  0.78937756  0.00545851  0.16595421    -0.23100
C1425       C  0.75380719  0.84153302  0.16183913    -0.06000
C1426       C  0.72477144  0.84520254  0.14144330     0.00000
C1427       C  0.72458022  0.84576700  0.10659995    -0.08600
C1428       C  0.75337959  0.84551116  0.09420005    -0.06000
C1429       C  0.78251139  0.84592199  0.11472224    -0.00100
C1430       C  0.78267168  0.84246707  0.14944700    -0.08500
C1431       C  0.81275405  0.84080859  0.17397449     0.61900
H1432       H  0.75390730  0.84017872  0.18816884     0.12500
H1433       H  0.75319314  0.84753905  0.06787508     0.12600
C1434       C  0.69459530  0.84833006  0.08193720     0.62100
F1435       F  0.80704772  0.83284046  0.20565133    -0.23100
F1436       F  0.82813464  0.87569029  0.17485100    -0.20400
F1437       F  0.83196973  0.81225102  0.16513357    -0.20100
F1438       F  0.68131546  0.88413570  0.08352384    -0.20100
F1439       F  0.67366177  0.82022117  0.08854597    -0.20500
F1440       F  0.70006162  0.84315620  0.04984442    -0.23100
C1441       C  0.98453709  0.88569491  0.13515131    -0.06000
C1442       C  0.97325583  0.91724989  0.11542799     0.00000
C1443       C  0.99395506  0.94868478  0.11285543    -0.08600
C1444       C  0.52665556  0.94606470  0.12477003    -0.06000
C1445       C  0.53644852  0.91804173  0.14864770    -0.00100
C1446       C  0.51430602  0.89110062  0.15723251    -0.08500
C1447       C  0.52248294  0.86286006  0.18545234     0.61900
H1448       H  0.96865258  0.86222646  0.13794025     0.12500
H1449       H  0.54376009  0.96678877  0.11887161     0.12600
C1450       C  0.98376694  0.98443979  0.09297334     0.62100
F1451       F  0.49596013  0.84565896  0.19435629    -0.23100
F1452       F  0.53775155  0.88173281  0.21278810    -0.20400
F1453       F  0.54157897  0.83431784  0.17643161    -0.20100
F1454       F  0.96156263  0.00391482  0.10748413    -0.20100
F1455       F  0.97139038  0.97438341  0.06121622    -0.20500
F1456       F  0.00853537  0.00933219  0.09113088    -0.23100
C1457       C  0.61029730  0.28209020  0.98373355    -0.06000
C1458       C  0.62193318  0.28509657  0.01779154     0.00000
C1459       C  0.63936579  0.25388230  0.03317080    -0.08600
C1460       C  0.61026552  0.21661652  0.50254519    -0.06000
C1461       C  0.62826623  0.22119939  0.47684279    -0.00100
C1462       C  0.64217026  0.25715626  0.47204788    -0.08500
C1463       C  0.66304329  0.26293335  0.44570391     0.61900
H1464       H  0.59735346  0.30585026  0.97157091     0.12500
H1465       H  0.60038745  0.18863312  0.50627000     0.12600
C1466       C  0.65460681  0.25496304  0.06901182     0.62100
F1467       F  0.67507136  0.29976713  0.44593128    -0.23100
F1468       F  0.64602202  0.25637372  0.41499539    -0.20400
F1469       F  0.68796094  0.23777242  0.45090935    -0.20100
F1470       F  0.63187138  0.25783547  0.08936298    -0.20100
F1471       F  0.67485845  0.28591384  0.07390838    -0.20500
F1472       F  0.67183720  0.22227454  0.07819082    -0.23100
C1473       C  0.86394733  0.29065391  0.26059031    -0.06000
C1474       C  0.87267887  0.28908388  0.22882542     0.00000
C1475       C  0.88104402  0.25303559  0.21690927    -0.08600
C1476       C  0.88114801  0.22046391  0.23748523    -0.06000
C1477       C  0.87302388  0.22213223  0.26947381    -0.00100
C1478       C  0.86353978  0.25791610  0.28096867    -0.08500
C1479       C  0.85204280  0.26164143  0.31406047     0.61900
H1480       H  0.85755421  0.31819939  0.26954330     0.12500
H1481       H  0.88766502  0.19295623  0.22857299     0.12600
C1482       C  0.89086878  0.24883652  0.18309408     0.62100
F1483       F  0.84137737  0.29818809  0.31901378    -0.23100
F1484       F  0.87619886  0.25365486  0.33917250    -0.20400
F1485       F  0.82749056  0.23647256  0.31574046    -0.20100
F1486       F  0.91648779  0.27207414  0.18081736    -0.20100
F1487       F  0.86631474  0.25900098  0.15908135    -0.20500
F1488       F  0.89918118  0.21160460  0.17697483    -0.23100
C1489       C  0.72481929  0.39599927  0.13143891    -0.06000
C1490       C  0.71524657  0.41937956  0.10380916     0.00000
C1491       C  0.73744427  0.44371201  0.09184577    -0.08600
C1492       C  0.76851450  0.44390876  0.10836807    -0.06000
C1493       C  0.77810442  0.41989995  0.13557613    -0.00100
C1494       C  0.75589798  0.39556842  0.14746860    -0.08500
C1495       C  0.76470429  0.36958143  0.17719451     0.61900
H1496       H  0.70754851  0.37775870  0.14048329     0.12500
H1497       H  0.78590913  0.46198390  0.09943134     0.12600
C1498       C  0.72890014  0.46776810  0.06093597     0.62100
F1499       F  0.73855388  0.35348499  0.18785934    -0.23100
F1500       F  0.78071200  0.39032588  0.20301172    -0.20400
F1501       F  0.78339693  0.34002392  0.16921895    -0.20100
F1502       F  0.70868183  0.49670827  0.06674150    -0.20100
F1503       F  0.71464997  0.44496351  0.03555336    -0.20500
F1504       F  0.75504712  0.48447819  0.05079722    -0.23100
C1505       C  0.49834704  0.35244851  0.15866619    -0.06000
C1506       C  0.96884424  0.34826258  0.14431136     0.00000
C1507       C  0.97022006  0.32943964  0.11404894    -0.08600
C1508       C  0.99789368  0.33207556  0.09962528    -0.06000
C1509       C  0.52684007  0.34847849  0.11138982    -0.00100
C1510       C  0.52711879  0.35161275  0.14616203    -0.08500
C1511       C  0.55719589  0.35514033  0.17054005     0.61900
H1512       H  0.49843729  0.35725170  0.18469489     0.12500
H1513       H  0.99840456  0.31900580  0.07582960     0.12600
C1514       C  0.94277299  0.30719559  0.09591021     0.62100
F1515       F  0.55175521  0.35198967  0.20286371    -0.23100
F1516       F  0.57098281  0.39047669  0.16706906    -0.20400
F1517       F  0.57767345  0.32618715  0.16530418    -0.20100
F1518       F  0.92621733  0.33046766  0.07220579    -0.20100
F1519       F  0.92287873  0.29394859  0.11700954    -0.20500
F1520       F  0.95340148  0.27557223  0.08069040    -0.23100
C1521       C  0.87482603  0.71973016  0.51376174    -0.06000
C1522       C  0.87912597  0.72228267  0.48033056     0.00000
C1523       C  0.87405530  0.75780680  0.96393702    -0.08600
C1524       C  0.87353640  0.79001083  0.98472201    -0.06000
C1525       C  0.87381867  0.78693672  0.01920885    -0.00100
C1526       C  0.87484052  0.75211590  0.53434356    -0.08500
C1527       C  0.87029082  0.74650098  0.57006918     0.61900
H1528       H  0.87166522  0.69157367  0.52395149     0.12500
H1529       H  0.87265321  0.81835273  0.97384949     0.12600
C1530       C  0.87323718  0.76389002  0.92715941     0.62100
F1531       F  0.86628296  0.70831172  0.57774299    -0.23100
F1532       F  0.84400683  0.76614275  0.57624204    -0.20400
F1533       F  0.89638417  0.75982651  0.59055987    -0.20100
F1534       F  0.84674916  0.74662776  0.91032361    -0.20100
F1535       F  0.89971848  0.74832402  0.91717794    -0.20500
F1536       F  0.87228742  0.80233443  0.91866167    -0.25500
C1537       C  0.85821824  0.53906131  0.30447904    -0.06000
C1538       C  0.87719328  0.52891807  0.33392781     0.00000
C1539       C  0.89504785  0.49436701  0.33481562    -0.08600
C1540       C  0.89259435  0.47150973  0.30663377    -0.06000
C1541       C  0.87360958  0.48131686  0.27723886    -0.00100
C1542       C  0.85598946  0.51606510  0.27598321    -0.08500
C1543       C  0.83518695  0.52970435  0.24498489     0.61900
H1544       H  0.84451999  0.56498490  0.30418257     0.12500
H1545       H  0.90564549  0.44504233  0.30752817     0.12600
C1546       C  0.91598456  0.47993282  0.36543283     0.62100
F1547       F  0.82102734  0.56439162  0.24956459    -0.23100
F1548       F  0.81160865  0.50323676  0.23584593    -0.20400
F1549       F  0.85290707  0.53464843  0.21978310    -0.20100
F1550       F  0.89724326  0.46675009  0.38767777    -0.20100
F1551       F  0.93561696  0.50891564  0.37913215    -0.20500
F1552       F  0.93481827  0.44976859  0.35882874    -0.23100
C1553       C  0.90448189  0.51132120  0.04047594    -0.06000
C1554       C  0.87770844  0.53359424  0.03001846     0.00000
C1555       C  0.84993470  0.52675847  0.04381601    -0.08600
C1556       C  0.85008605  0.49782072  0.06782986    -0.06000
C1557       C  0.87674792  0.47546762  0.07785337    -0.00100
C1558       C  0.90432243  0.48202894  0.06403108    -0.08500
C1559       C  0.93335193  0.45810573  0.07459221     0.61900
H1560       H  0.92547471  0.51647374  0.02951240     0.12500
H1561       H  0.82960753  0.49316128  0.07975572     0.12600
C1562       C  0.81660155  0.53302249  0.52591322     0.62100
F1563       F  0.95727104  0.46725513  0.05692462    -0.23100
F1564       F  0.92612487  0.41972302  0.06983585    -0.20400
F1565       F  0.94411089  0.46414536  0.10750357    -0.20100
F1566       F  0.80756759  0.51884786  0.49454368    -0.20100
F1567       F  0.81796352  0.57257797  0.52473411    -0.20500
F1568       F  0.79385176  0.52325059  0.54498829    -0.23100
C1569       C  0.99364002  0.53745763  0.49215195    -0.06000
C1570       C  0.96727512  0.51520581  0.47920099     0.00000
C1571       C  0.96829160  0.47653733  0.98403200    -0.08600
C1572       C  0.49518299  0.45916211  0.00512634    -0.06000
C1573       C  0.51976258  0.48319012  0.01957503    -0.00100
C1574       C  0.51947599  0.52457103  0.51884437    -0.08500
C1575       C  0.54482398  0.55085462  0.53601307     0.61900
H1576       H  0.99321695  0.56801414  0.48787979     0.12500
H1577       H  0.49761570  0.42849017  0.00822705     0.12600
C1578       C  0.94150541  0.44940930  0.97182384     0.62100
F1579       F  0.53528393  0.58871079  0.53511190    -0.23100
F1580       F  0.57123959  0.54874235  0.52068437    -0.20400
F1581       F  0.54800719  0.54197505  0.06583576    -0.20100
F1582       F  0.93422258  0.45185889  0.43951960    -0.20100
F1583       F  0.91470092  0.45934027  0.98444520    -0.20500
F1584       F  0.94826123  0.41178130  0.98095325    -0.23100
C1585       C  0.62471573  0.78580220  0.26629752    -0.06000
C1586       C  0.62841675  0.78351253  0.23270236     0.00000
C1587       C  0.62854114  0.74693734  0.21800615    -0.08600
C1588       C  0.62502306  0.71436902  0.23746042    -0.06000
C1589       C  0.62104954  0.71658267  0.27095257    -0.00100
C1590       C  0.62120983  0.75313145  0.28580094    -0.08500
C1591       C  0.61737942  0.75806629  0.32176156     0.61900
H1592       H  0.62479034  0.81383599  0.27743146     0.12500
H1593       H  0.62519313  0.68639018  0.22628304     0.12600
C1594       C  0.63298435  0.74178049  0.18224729     0.62100
F1595       F  0.61746202  0.79624185  0.33071272    -0.23100
F1596       F  0.64189380  0.74037632  0.34164543    -0.20400
F1597       F  0.58923625  0.74215611  0.32748308    -0.20100
F1598       F  0.66089701  0.75854747  0.17681425    -0.20100
F1599       F  0.60828467  0.75844157  0.16187058    -0.20500
F1600       F  0.63394689  0.70353825  0.17371566    -0.23100
C1601       C  0.63690539  0.48922794  0.46164848    -0.06000
C1602       C  0.61155126  0.46322281  0.46051910     0.00000
C1603       C  0.58707904  0.46508153  0.43317703    -0.08600
C1604       C  0.58880055  0.49330914  0.40894633    -0.06000
C1605       C  0.61367971  0.51968352  0.41072151    -0.00100
C1606       C  0.63832391  0.51758677  0.43743368    -0.08500
C1607       C  0.66624868  0.54464411  0.44023206     0.61900
H1608       H  0.65557379  0.48802260  0.48232016     0.12500
H1609       H  0.57036726  0.49518036  0.38802949     0.12600
C1610       C  0.55899728  0.43806555  0.42902401     0.62100
F1611       F  0.68848135  0.53610478  0.46714175    -0.23100
F1612       F  0.65632244  0.58178098  0.44376670    -0.20400
F1613       F  0.68054386  0.54217343  0.41230592    -0.20100
F1614       F  0.54008380  0.44574641  0.45259231    -0.20100
F1615       F  0.56905124  0.40046866  0.43186038    -0.20500
F1616       F  0.54077606  0.44209386  0.39849736    -0.23100
C1617       C  0.59937979  0.51460422  0.15540909    -0.06000
C1618       C  0.61732423  0.48067773  0.16002537     0.00000
C1619       C  0.63580423  0.47413943  0.19104666    -0.08600
C1620       C  0.63481060  0.50122295  0.21620388    -0.06000
C1621       C  0.61642650  0.53471404  0.21156657    -0.00100
C1622       C  0.59904008  0.54205236  0.18019088    -0.08500
C1623       C  0.58054317  0.57878002  0.17223622     0.61900
H1624       H  0.58512245  0.51975423  0.13185092     0.12500
H1625       H  0.64794776  0.49568094  0.24028589     0.12600
C1626       C  0.65663339  0.43917654  0.19791708     0.62100
F1627       F  0.57139897  0.58342580  0.13867927    -0.23100
F1628       F  0.59881801  0.61010434  0.18324142    -0.20400
F1629       F  0.55374998  0.57813332  0.18703998    -0.20100
F1630       F  0.67785719  0.43787776  0.17575317    -0.20100
F1631       F  0.63841791  0.40634493  0.19524457    -0.20500
F1632       F  0.67357734  0.43972396  0.22928477    -0.23100
C1633       C  0.72267263  0.61081625  0.38577075    -0.06000
C1634       C  0.71411549  0.58789865  0.35769444     0.00000
C1635       C  0.73769161  0.56751985  0.34450717    -0.08600
C1636       C  0.76879427  0.56947159  0.36090286    -0.06000
C1637       C  0.77720774  0.59252825  0.38883649    -0.00100
C1638       C  0.75392115  0.61413390  0.40120940    -0.08500
C1639       C  0.76197825  0.64068427  0.43041697     0.61900
H1640       H  0.70451421  0.62658624  0.39547152     0.12500
H1641       H  0.78712230  0.55377219  0.35140561     0.12600
C1642       C  0.73049963  0.54571604  0.31239075     0.62100
F1643       F  0.73538370  0.65493212  0.44123390    -0.23100
F1644       F  0.77929802  0.67137743  0.42145478    -0.20400
F1645       F  0.77923688  0.62127917  0.45637849    -0.20100
F1646       F  0.71490024  0.56936318  0.28828029    -0.20100
F1647       F  0.71201220  0.51417125  0.31655564    -0.20500
F1648       F  0.75753724  0.53302047  0.30146614    -0.23100
C1649       C  0.96586583  0.65298206  0.35297784    -0.06000
C1650       C  0.96973263  0.65509093  0.38769795     0.00000
C1651       C  0.50127301  0.65704553  0.40931541    -0.08600
C1652       C  0.52686951  0.65585991  0.39162205    -0.06000
C1653       C  0.52318516  0.65488338  0.35692286    -0.00100
C1654       C  0.99138690  0.65145463  0.33503898    -0.08500
C1655       C  0.98469633  0.64882583  0.29768797     0.61900
H1656       H  0.94234275  0.65096769  0.33969524     0.12500
H1657       H  0.55028482  0.65389883  0.40517393     0.12600
C1658       C  0.50777483  0.65627919  0.44673072     0.62100
F1659       F  0.95296039  0.65085393  0.28598712    -0.23100
F1660       F  0.99549609  0.61442993  0.28734050    -0.20400
F1661       F  0.99919646  0.67891310  0.28378760    -0.20100
F1662       F  0.49649215  0.62263165  0.45834593    -0.20100
F1663       F  0.49359948  0.68724914  0.45927208    -0.20500
F1664       F  0.53949817  0.65821637  0.45855122    -0.23100
C1665       C  0.52407683  0.50282623  0.23431795    -0.06000
C1666       C  0.52195638  0.51471622  0.26646251     0.00000
C1667       C  0.49230935  0.51569273  0.27751145    -0.08600
C1668       C  0.97191377  0.49323661  0.25730995    -0.06000
C1669       C  0.97018685  0.49022415  0.22306170    -0.00100
C1670       C  0.99710566  0.49673606  0.20788687    -0.08500
C1671       C  0.99576216  0.49381424  0.17087538     0.61900
H1672       H  0.54679400  0.50333850  0.22600415     0.12500
H1673       H  0.95128776  0.48650961  0.26849852     0.12600
C1674       C  0.48919207  0.52474159  0.31310718     0.62100
F1675       F  0.52969540  0.48983885  0.16960804    -0.23100
F1676       F  0.97253050  0.51768415  0.15550827    -0.20400
F1677       F  0.98917554  0.45656704  0.16096920    -0.20100
F1678       F  0.49786480  0.56199770  0.32095398    -0.20100
F1679       F  0.50795899  0.50015324  0.33382673    -0.20500
F1680       F  0.97478194  0.49003188  0.32443373    -0.23100
Fe1681     Fe  0.62053923  0.62922553  0.84520747     1.65800
Fe1682     Fe  0.57159076  0.61092207  0.77630047     1.73200
Fe1683     Fe  0.61989974  0.54287790  0.80964415     1.54400
O1684       O  0.66533775  0.55725707  0.83257280    -0.81900
O1685       O  0.54375711  0.56928836  0.79056025    -0.80200
O1686       O  0.66613837  0.62049270  0.83850940    -0.84400
O1687       O  0.62369374  0.58509049  0.88136136    -0.79200
O1688       O  0.63304059  0.55218042  0.76464871    -0.81000
O1689       O  0.55031178  0.64813186  0.80595752    -0.83700
C1690       C  0.61439472  0.55011775  0.88058923     0.97000
C1691       C  0.68001701  0.58843277  0.84043501     1.04500
O1692       O  0.60475265  0.59480507  0.81028320    -1.12700
O1693       O  0.59848179  0.65362928  0.76201455    -0.75200
O1694       O  0.61842882  0.67617023  0.81149207    -0.78600
O1695       O  0.60674746  0.53214902  0.85392965    -0.79300
C1696       C  0.61165003  0.68007186  0.78006869     0.95900
O1697       O  0.57624596  0.63870026  0.85558133    -0.77300
O1698       O  0.58717996  0.57450555  0.74155930    -0.82500
C1699       C  0.54843273  0.53485960  0.78407061     0.98500
C1700       C  0.61186283  0.55510083  0.73993261     1.04500
O1701       O  0.57611968  0.52110349  0.78706769    -0.78100
C1702       C  0.55135719  0.64802866  0.83699619     1.02800
Fe1703     Fe  0.87098451  0.63266589  0.89465959     1.65800
Fe1704     Fe  0.92009051  0.61359323  0.96350729     1.73200
Fe1705     Fe  0.86949870  0.54676345  0.93268166     1.54400
O1706       O  0.82458189  0.56137038  0.90990835    -0.81900
O1707       O  0.94549986  0.57038697  0.94834030    -0.80200
O1708       O  0.82473796  0.62420110  0.90053352    -0.84400
O1709       O  0.86870985  0.58744876  0.85920530    -0.79200
O1710       O  0.85725046  0.55787379  0.97763997    -0.81000
O1711       O  0.94225785  0.64960993  0.93324406    -0.83700
C1712       C  0.87669187  0.55187882  0.86135516     0.97000
C1713       C  0.81047152  0.59235748  0.90066995     1.04500
O1714       O  0.88592425  0.59836719  0.93036629    -1.12700
O1715       O  0.89509507  0.65790075  0.97767647    -0.75200
O1716       O  0.87307863  0.68019152  0.92851072    -0.78600
O1717       O  0.88128920  0.53437943  0.88854732    -0.79300
C1718       C  0.88107141  0.68425734  0.95994611     0.95900
O1719       O  0.91550090  0.64251001  0.88384799    -0.77300
O1720       O  0.90342938  0.57801680  0.50241259    -0.82500
C1721       C  0.94071524  0.53675866  0.95764313     0.98500
C1722       C  0.87816089  0.55897664  0.50379539     1.04500
O1723       O  0.91281898  0.52377844  0.95531454    -0.78100
C1724       C  0.94079710  0.65078068  0.90219580     1.02800
Fe1725     Fe  0.87075129  0.37177228  0.64650546     1.65800
Fe1726     Fe  0.91946437  0.39237159  0.71474841     1.73200
Fe1727     Fe  0.87260407  0.45994939  0.67826216     1.54400
O1728       O  0.88749592  0.46744620  0.63435394    -0.81900
O1729       O  0.90333985  0.43124569  0.74824582    -0.80200
O1730       O  0.86658118  0.41488625  0.60904147    -0.84400
O1731       O  0.82567686  0.38132481  0.65461746    -0.79200
O1732       O  0.91609414  0.48190887  0.70119345    -0.81000
O1733       O  0.89248876  0.35012006  0.73016465    -0.83700
C1734       C  0.81217427  0.41352424  0.65038170     0.97000
C1735       C  0.87781435  0.44897455  0.60850711     1.04500
O1736       O  0.88681084  0.40748820  0.68019129    -1.12700
O1737       O  0.94078263  0.35393798  0.68553507    -0.75200
O1738       O  0.91464654  0.36199928  0.63560974    -0.78600
O1739       O  0.82729159  0.44507808  0.65489546    -0.79300
C1740       C  0.93922887  0.35222102  0.65427091     0.95900
O1741       O  0.87428353  0.32517234  0.68112334    -0.77300
O1742       O  0.94750902  0.43262427  0.69914916    -0.82500
C1743       C  0.87900790  0.45240327  0.74800614     0.98500
C1744       C  0.94344644  0.46730696  0.70490011     1.04500
O1745       O  0.85824572  0.45387511  0.72294380    -0.78100
C1746       C  0.88115828  0.32220484  0.71264010     1.02800
Fe1747     Fe  0.62193279  0.36996639  0.59956181     1.65800
Fe1748     Fe  0.57060649  0.38652768  0.53178335     1.73200
Fe1749     Fe  0.62149388  0.45443003  0.55929949     1.54400
O1750       O  0.61068671  0.46838523  0.60368271    -0.81900
O1751       O  0.58592024  0.42481892  0.99320246    -0.80200
O1752       O  0.62506241  0.41589658  0.63344553    -0.84400
O1753       O  0.66745821  0.37831793  0.59215341    -0.79200
O1754       O  0.57758023  0.47646628  0.53749096    -0.81000
O1755       O  0.59570879  0.34235018  0.51790700    -0.83700
C1756       C  0.68152704  0.41014942  0.59131565     0.97000
C1757       C  0.61719604  0.45132189  0.63109610     1.04500
O1758       O  0.60549185  0.40300222  0.56352393    -1.12700
O1759       O  0.54948111  0.35162153  0.56391062    -0.75200
O1760       O  0.57835148  0.35999107  0.61204833    -0.78600
O1761       O  0.66711648  0.44069889  0.58121924    -0.79300
C1762       C  0.55260399  0.35097579  0.59519646     0.95900
O1763       O  0.61963619  0.32202403  0.56726226    -0.77300
O1764       O  0.54532851  0.42992174  0.54662361    -0.82500
C1765       C  0.60998888  0.44522423  0.99005283     0.98500
C1766       C  0.54983340  0.46349858  0.53705313     1.04500
O1767       O  0.63241925  0.44143727  0.51411240    -0.78100
C1768       C  0.61135481  0.31767884  0.53605578     1.02800
Fe1769     Fe  0.88290986  0.87611397  0.60412790     1.65800
Fe1770     Fe  0.83332798  0.89512272  0.53586665     1.73200
Fe1771     Fe  0.87950225  0.96421040  0.57094165     1.54400
O1772       O  0.86482700  0.97128363  0.61490226    -0.81900
O1773       O  0.84527491  0.93012619  0.00156100    -0.80200
O1774       O  0.88584918  0.91925454  0.64107768    -0.84400
O1775       O  0.92761399  0.88805525  0.59575225    -0.79200
O1776       O  0.83602707  0.98502490  0.54748122    -0.81000
O1777       O  0.86041206  0.85277532  0.52090338    -0.83700
C1778       C  0.94038188  0.92074707  0.60082654     0.97000
C1779       C  0.87402135  0.95295281  0.64111379     1.04500
O1780       O  0.86603965  0.91124258  0.56996473    -1.12700
O1781       O  0.81235972  0.85716317  0.56608074    -0.75200
O1782       O  0.83923427  0.86441693  0.61562661    -0.78600
O1783       O  0.92460343  0.95136274  0.59490386    -0.79300
C1784       C  0.81401711  0.85603812  0.59737329     0.95900
O1785       O  0.88086467  0.82940944  0.57000732    -0.77300
O1786       O  0.80512520  0.93556088  0.55083337    -0.82500
C1787       C  0.87030796  0.94953509  0.99998607     0.98500
C1788       C  0.80877889  0.97010431  0.54342349     1.04500
O1789       O  0.89390597  0.95826206  0.52621792    -0.78100
C1790       C  0.87352452  0.82581976  0.53858377     1.02800
Fe1791     Fe  0.62954064  0.87531263  0.64785404     1.65800
Fe1792     Fe  0.67883383  0.88627329  0.71776955     1.73200
Fe1793     Fe  0.63280970  0.95846049  0.68873965     1.54400
O1794       O  0.64495415  0.97264091  0.64435249    -0.81900
O1795       O  0.66506242  0.92076247  0.75550258    -0.80200
O1796       O  0.62652022  0.92224294  0.61454692    -0.84400
O1797       O  0.58466891  0.88411027  0.65650292    -0.79200
O1798       O  0.67747003  0.97695837  0.71202995    -0.81000
O1799       O  0.64995712  0.84397549  0.72888288    -0.83700
C1800       C  0.57130379  0.91603805  0.65838423     0.97000
C1801       C  0.63600419  0.95707922  0.61672456     1.04500
O1802       O  0.64651103  0.90642523  0.68475194    -1.12700
O1803       O  0.69890150  0.85116412  0.68503015    -0.75200
O1804       O  0.67350631  0.86633405  0.63622126    -0.78600
O1805       O  0.58672978  0.94663041  0.66665919    -0.79300
C1806       C  0.69799915  0.85449546  0.65394304     0.95900
O1807       O  0.63044076  0.82539344  0.67807212    -0.77300
O1808       O  0.70794567  0.92769230  0.70646454    -0.82500
C1809       C  0.64138762  0.94186802  0.75780798     0.98500
C1810       C  0.70457902  0.96140711  0.71569649     1.04500
O1811       O  0.62011778  0.94584676  0.73336798    -0.78100
C1812       C  0.63568195  0.81960831  0.70933305     1.02800
Fe1813     Fe  0.62986254  0.12809656  0.89923938     1.65800
Fe1814     Fe  0.67691143  0.11169811  0.96940881     1.73200
Fe1815     Fe  0.62941517  0.04248026  0.93760689     1.54400
O1816       O  0.58460639  0.05588660  0.91363720    -0.81900
O1817       O  0.70431225  0.06983961  0.95574041    -0.80200
O1818       O  0.58394759  0.11889766  0.90491117    -0.84400
O1819       O  0.62790121  0.08248976  0.86460974    -0.79200
O1820       O  0.61513217  0.05266609  0.98190267    -0.81000
O1821       O  0.69880118  0.14878978  0.93947494    -0.83700
C1822       C  0.63667321  0.04730737  0.86669957     0.97000
C1823       C  0.57008886  0.08675010  0.90477331     1.04500
O1824       O  0.64445745  0.09464666  0.93549649    -1.12700
O1825       O  0.64963074  0.15430952  0.98207211    -0.75200
O1826       O  0.63113186  0.17622881  0.93194224    -0.78600
O1827       O  0.64352636  0.03031174  0.89409355    -0.79300
C1828       C  0.63710606  0.18073850  0.96343146     0.95900
O1829       O  0.67456297  0.13840202  0.88934599    -0.77300
O1830       O  0.66216320  0.08298020  0.50458326    -0.82500
C1831       C  0.70005063  0.03628353  0.96544890     0.98500
C1832       C  0.63770723  0.06294253  0.50648812     1.04500
O1833       O  0.67258671  0.02190433  0.96205825    -0.78100
C1834       C  0.69867748  0.14907740  0.90852926     1.02800
Fe1835     Fe  0.87874619  0.13330688  0.85531930     1.65800
Fe1836     Fe  0.83146773  0.11196298  0.78568736     1.73200
Fe1837     Fe  0.87784247  0.04449932  0.82416280     1.54400
O1838       O  0.92289082  0.05982500  0.84702621    -0.81900
O1839       O  0.80225769  0.07087679  0.79849138    -0.80200
O1840       O  0.92428619  0.12356191  0.84875891    -0.84400
O1841       O  0.88224116  0.09107952  0.89321302    -0.79200
O1842       O  0.89245403  0.04892512  0.77939991    -0.81000
O1843       O  0.80861152  0.14957344  0.81415898    -0.83700
C1844       C  0.87218653  0.05653442  0.89386696     0.97000
C1845       C  0.93787407  0.09134251  0.85197499     1.04500
O1846       O  0.86323183  0.09694522  0.82151305    -1.12700
O1847       O  0.85906346  0.15471532  0.77160654    -0.75200
O1848       O  0.87659715  0.17944421  0.82080649    -0.78600
O1849       O  0.86312810  0.03756946  0.86817101    -0.79300
C1850       C  0.87062905  0.18236687  0.78930687     0.95900
O1851       O  0.83424854  0.14371359  0.86462940    -0.77300
O1852       O  0.84883994  0.07400277  0.75288573    -0.82500
C1853       C  0.80718520  0.03559515  0.79625401     0.98500
C1854       C  0.87274924  0.05219157  0.75358464     1.04500
O1855       O  0.83477647  0.02179609  0.80199278    -0.78100
C1856       C  0.80951518  0.15198433  0.84524047     1.02800
C1857       C  0.78401984  0.16291354  0.89499894    -0.06000
C1858       C  0.78089824  0.16224673  0.86034001     0.00000
C1859       C  0.75046377  0.16748958  0.84229921    -0.08600
C1860       C  0.72432362  0.16543085  0.85936200    -0.06000
C1861       C  0.72742518  0.16033015  0.89383024    -0.00100
C1862       C  0.75805007  0.16252542  0.91216896    -0.08500
C1863       C  0.76401495  0.16306871  0.94958211     0.61900
H1864       H  0.80729598  0.16182351  0.90895552     0.12500
H1865       H  0.70100044  0.16633700  0.84543081     0.12600
C1866       C  0.74509422  0.17548933  0.80547218     0.62100
F1867       F  0.79533705  0.16896561  0.96174412    -0.23100
F1868       F  0.75524782  0.12845812  0.96182731    -0.20400
F1869       F  0.74722258  0.19244979  0.96111041    -0.20100
F1870       F  0.75052751  0.14296562  0.78819514    -0.20100
F1871       F  0.76490187  0.20455897  0.79818002    -0.20500
F1872       F  0.71466028  0.18716968  0.79471539    -0.23100
C1873       C  0.98194176  0.06726045  0.89202371    -0.06000
C1874       C  0.97190176  0.09024663  0.86430787     0.00000
C1875       C  0.99408976  0.11248505  0.85026030    -0.08600
C1876       C  0.52694605  0.10454380  0.86122124    -0.06000
C1877       C  0.53635432  0.08521395  0.89116363    -0.00100
C1878       C  0.51377513  0.06499915  0.90642744    -0.08500
C1879       C  0.52258795  0.04348252  0.93868598     0.61900
H1880       H  0.96453913  0.05076266  0.90256504     0.12500
H1881       H  0.54463111  0.11908590  0.84948540     0.12600
C1882       C  0.98458508  0.13736398  0.81999109     0.62100
F1883       F  0.49645721  0.02959336  0.95092964    -0.23100
F1884       F  0.53853157  0.06764369  0.96201950    -0.20400
F1885       F  0.54137933  0.01262270  0.93401459    -0.20100
F1886       F  0.96662310  0.16770351  0.82784514    -0.20100
F1887       F  0.96747384  0.11588986  0.79536525    -0.20500
F1888       F  0.01036962  0.15230049  0.80776131    -0.23100
C1889       C  0.78736079  0.98629830  0.75650093    -0.06000
C1890       C  0.78085663  0.01183540  0.78075240     0.00000
C1891       C  0.74930052  0.01914579  0.78461721    -0.08600
C1892       C  0.72540649  0.00483460  0.76079797    -0.06000
C1893       C  0.73182307  0.98005260  0.73576591    -0.00100
C1894       C  0.76343675  0.96888225  0.73471260    -0.08500
C1895       C  0.77244352  0.93795680  0.71185926     0.61900
H1896       H  0.81162601  0.98041393  0.75445238     0.12500
H1897       H  0.70119540  0.01082292  0.76300565     0.12600
C1898       C  0.74064613  0.03796480  0.81545913     0.62100
F1899       F  0.80445671  0.93684310  0.71149788    -0.23100
F1900       F  0.75796538  0.94429277  0.67995228    -0.20400
F1901       F  0.76362708  0.90253993  0.72265696    -0.20100
F1902       F  0.75104377  0.07527321  0.81860213    -0.20100
F1903       F  0.75378545  0.01728413  0.84281678    -0.20500
F1904       F  0.70857627  0.03870505  0.81519272    -0.23100
C1905       C  0.61828818  0.99735388  0.78340629    -0.06000
C1906       C  0.64031718  0.96715071  0.78708615     0.00000
C1907       C  0.66197377  0.96507741  0.81669052    -0.08600
C1908       C  0.66060427  0.99317450  0.84091274    -0.06000
C1909       C  0.63862697  0.02324474  0.83711859    -0.00100
C1910       C  0.61694774  0.02531727  0.80777099    -0.08500
C1911       C  0.59177321  0.05592393  0.80241659     0.61900
H1912       H  0.60198700  0.99941709  0.76080095     0.12500
H1913       H  0.67710561  0.99189321  0.86346369     0.12600
C1914       C  0.68631346  0.93350477  0.82347192     0.62100
F1915       F  0.57204853  0.05129466  0.77289474    -0.23100
F1916       F  0.60556250  0.09169862  0.80192973    -0.20400
F1917       F  0.57362650  0.05417167  0.82748703    -0.20100
F1918       F  0.70860409  0.93738658  0.80267402    -0.20100
F1919       F  0.67188312  0.89809574  0.81891677    -0.20500
F1920       F  0.70185587  0.93461967  0.85546553    -0.23100
C1921       C  0.65558339  0.01498179  0.59114324    -0.06000
C1922       C  0.63641695  0.98204376  0.58698465     0.00000
C1923       C  0.61696383  0.97659722  0.55631615    -0.08600
C1924       C  0.61710562  0.00480535  0.53156187    -0.06000
C1925       C  0.63623352  0.03786130  0.53590798    -0.00100
C1926       C  0.65590093  0.04297204  0.56649088    -0.08500
C1927       C  0.67740607  0.07751992  0.57367957     0.61900
H1928       H  0.67092663  0.01868237  0.61424660     0.12500
H1929       H  0.60270065  0.00049597  0.50797749     0.12600
C1930       C  0.59609559  0.94150982  0.54936214     0.62100
F1931       F  0.68975537  0.07985812  0.60670124    -0.23100
F1932       F  0.66089025  0.11088929  0.56532728    -0.20400
F1933       F  0.69469090  0.07962157  0.06202422    -0.20100
F1934       F  0.57521067  0.93924948  0.57185669    -0.20100
F1935       F  0.61434241  0.90886571  0.55142691    -0.20500
F1936       F  0.57882709  0.94260638  0.51815290    -0.23100
C1937       C  0.75657878  0.96708626  0.50976238    -0.06000
C1938       C  0.78113550  0.99035395  0.52558212     0.00000
C1939       C  0.77847284  0.02724146  0.01942483    -0.08600
C1940       C  0.75158623  0.04123530  0.99984438    -0.06000
C1941       C  0.72710810  0.01716885  0.98525081    -0.00100
C1942       C  0.73043253  0.98222775  0.48955599    -0.08500
C1943       C  0.70582161  0.95525436  0.47194184     0.61900
H1944       H  0.75826681  0.93630456  0.51255228     0.12500
H1945       H  0.74949575  0.07170682  0.99605263     0.12600
C1946       C  0.80410611  0.05525065  0.03331855     0.62100
F1947       F  0.71515404  0.91736539  0.47509241    -0.23100
F1948       F  0.69637524  0.95415816  0.94390946    -0.20400
F1949       F  0.67823266  0.95862235  0.48510783    -0.20100
F1950       F  0.83080595  0.04907402  0.01917741    -0.20100
F1951       F  0.81104928  0.05140215  0.57052928    -0.20500
F1952       F  0.79530418  0.09298046  0.02708882    -0.23100
C1953       C  0.84477383  0.99794253  0.96125999    -0.06000
C1954       C  0.87161042  0.97581520  0.97176888     0.00000
C1955       C  0.89944072  0.98304067  0.95817337    -0.08600
C1956       C  0.89951149  0.01275259  0.93488154    -0.06000
C1957       C  0.87279800  0.03499008  0.92475072    -0.00100
C1958       C  0.84491398  0.02748983  0.93787973    -0.08500
C1959       C  0.81558340  0.05087287  0.92708464     0.61900
H1960       H  0.82373049  0.99242464  0.97204053     0.12500
H1961       H  0.92012530  0.01782632  0.92324794     0.12600
C1962       C  0.92837550  0.95834928  0.96684205     0.62100
F1963       F  0.79115124  0.03995755  0.94351189    -0.23100
F1964       F  0.80584027  0.04633797  0.89371066    -0.20400
F1965       F  0.82202231  0.08913005  0.93352932    -0.20100
F1966       F  0.92007780  0.92003142  0.96471728    -0.20100
F1967       F  0.94256980  0.96630746  0.99843349    -0.20500
F1968       F  0.95010907  0.96490858  0.94573202    -0.23100
C1969       C  0.89987074  0.97806711  0.69460926    -0.06000
C1970       C  0.87237307  0.97382221  0.67207805     0.00000
C1971       C  0.84543754  0.99516359  0.67647477    -0.08600
C1972       C  0.84721963  0.02074543  0.70285601    -0.06000
C1973       C  0.87490432  0.02627105  0.72508316    -0.00100
C1974       C  0.90189340  0.00418311  0.72102567    -0.08500
C1975       C  0.93303398  0.00842416  0.74351087     0.61900
H1976       H  0.92026148  0.96185808  0.69043010     0.12500
H1977       H  0.82653593  0.03688249  0.70608251     0.12600
C1978       C  0.81491308  0.99216329  0.65285146     0.62100
F1979       F  0.95688798  0.98886147  0.73167438    -0.23100
F1980       F  0.93056021  0.99382301  0.77441185    -0.20400
F1981       F  0.94161947  0.04663281  0.74598175    -0.20100
F1982       F  0.80810750  0.95430674  0.64486922    -0.20100
F1983       F  0.81750437  0.01251002  0.62454981    -0.20500
F1984       F  0.78998670  0.00722003  0.66624223    -0.23100
C1985       C  0.75561829  0.84317374  0.65923252    -0.06000
C1986       C  0.72685715  0.84676821  0.63835286     0.00000
C1987       C  0.72720535  0.84663394  0.60362691    -0.08600
C1988       C  0.75624541  0.84678453  0.59171968    -0.06000
C1989       C  0.78509136  0.84736979  0.61270183    -0.00100
C1990       C  0.78473104  0.84377989  0.64734784    -0.08500
C1991       C  0.81450380  0.84153464  0.67231446     0.61900
H1992       H  0.75529961  0.84198631  0.68549904     0.12500
H1993       H  0.75643636  0.84882987  0.56544522     0.12600
C1994       C  0.69748584  0.84764955  0.57857257     0.62100
F1995       F  0.80824872  0.83242890  0.70358603    -0.23100
F1996       F  0.82985193  0.87648126  0.67430817    -0.20400
F1997       F  0.83398425  0.81342114  0.66319984    -0.20100
F1998       F  0.68412011  0.88362522  0.57808394    -0.20100
F1999       F  0.67646415  0.82027139  0.58638206    -0.20500
F2000       F  0.70344066  0.83994469  0.54701808    -0.23100
C2001       C  0.98529279  0.89013072  0.63534677    -0.06000
C2002       C  0.97381716  0.92238008  0.61672884     0.00000
C2003       C  0.99393546  0.95461395  0.61548875    -0.08600
C2004       C  0.52529579  0.94994824  0.62881287    -0.06000
C2005       C  0.53693913  0.91809877  0.64762240    -0.00100
C2006       C  0.51610464  0.88807968  0.65320242    -0.08500
C2007       C  0.52599003  0.85555636  0.67726955     0.61900
H2008       H  0.96967977  0.86613792  0.63724143     0.12500
H2009       H  0.54141408  0.97300380  0.62548258     0.12600
C2010       C  0.98317585  0.99133409  0.59728433     0.62100
F2011       F  0.50040783  0.83504305  0.68481344    -0.23100
F2012       F  0.54171245  0.87018186  0.70639244    -0.20400
F2013       F  0.54528220  0.83039389  0.66392920    -0.20100
F2014       F  0.96070784  0.00900584  0.61274605    -0.20100
F2015       F  0.97089035  0.98316978  0.56504456    -0.20500
F2016       F  0.00756017  0.01713553  0.59666354    -0.23100
C2017       C  0.63716795  0.28757817  0.49304614    -0.06000
C2018       C  0.61944404  0.28283091  0.51893997     0.00000
C2019       C  0.60530266  0.24701218  0.52353998    -0.08600
C2020       C  0.64312392  0.22094797  0.01432388    -0.06000
C2021       C  0.63100862  0.21771215  0.98038323    -0.00100
C2022       C  0.61472268  0.24953804  0.96471639    -0.08500
C2023       C  0.60196553  0.24980129  0.92817115     0.61900
H2024       H  0.64699764  0.31559495  0.48935166     0.12500
H2025       H  0.65615504  0.19720927  0.02643080     0.12600
C2026       C  0.58433366  0.24135181  0.54981364     0.62100
F2027       F  0.58644387  0.28348753  0.91835348    -0.23100
F2028       F  0.58092234  0.21996588  0.92099628    -0.20400
F2029       F  0.62639822  0.24619399  0.91003044    -0.20100
F2030       F  0.55923518  0.26623771  0.54419840    -0.20100
F2031       F  0.60114073  0.24847289  0.58052607    -0.20500
F2032       F  0.57260585  0.20438759  0.54990781    -0.23100
C2033       C  0.86948853  0.28790860  0.76273159    -0.06000
C2034       C  0.87727965  0.28536550  0.73062450     0.00000
C2035       C  0.88547703  0.24899422  0.71921057    -0.08600
C2036       C  0.88383488  0.21655308  0.73965183    -0.06000
C2037       C  0.87569779  0.21907850  0.77162304    -0.00100
C2038       C  0.86889309  0.25568927  0.78359057    -0.08500
C2039       C  0.86043670  0.26097756  0.81792398     0.61900
H2040       H  0.86407267  0.31587582  0.77161143     0.12500
H2041       H  0.88922436  0.18856482  0.73079050     0.12600
C2042       C  0.89756989  0.24441721  0.68649801     0.62100
F2043       F  0.85352336  0.29871982  0.82398365    -0.23100
F2044       F  0.88541582  0.25015109  0.84117070    -0.20400
F2045       F  0.83443172  0.23897922  0.82162622    -0.20100
F2046       F  0.92389182  0.26709431  0.68612047    -0.20100
F2047       F  0.87472899  0.25498587  0.66086288    -0.20500
F2048       F  0.90584839  0.20694654  0.68117864    -0.23100
C2049       C  0.72445199  0.39293413  0.63568836    -0.06000
C2050       C  0.71527721  0.41186480  0.60547571     0.00000
C2051       C  0.73806332  0.43197310  0.59050946    -0.08600
C2052       C  0.76920357  0.43321449  0.60684745    -0.06000
C2053       C  0.77832867  0.41409899  0.63693001    -0.00100
C2054       C  0.75563703  0.39358909  0.65169992    -0.08500
C2055       C  0.76418694  0.37297579  0.68444343     0.61900
H2056       H  0.70679830  0.37755857  0.64682459     0.12500
H2057       H  0.78696783  0.44825624  0.59570313     0.12600
C2058       C  0.72993084  0.45020489  0.55672139     0.62100
F2059       F  0.73787266  0.36014003  0.69695045    -0.23100
F2060       F  0.78042692  0.39752372  0.70726720    -0.20400
F2061       F  0.78267409  0.34159879  0.68047210    -0.20100
F2062       F  0.71116399  0.48185800  0.55860709    -0.20100
F2063       F  0.71424793  0.42403116  0.53500479    -0.20500
F2064       F  0.75645357  0.46187658  0.54409998    -0.23100
C2065       C  0.49674345  0.34350088  0.65982186    -0.06000
C2066       C  0.96748541  0.34125668  0.63908612     0.00000
C2067       C  0.96664597  0.33459307  0.60471935    -0.08600
C2068       C  0.99498178  0.33494540  0.59146563    -0.06000
C2069       C  0.52483606  0.34178208  0.61223575    -0.00100
C2070       C  0.52539978  0.34361030  0.64711731    -0.08500
C2071       C  0.55556381  0.34697611  0.67135732     0.61900
H2072       H  0.49686427  0.34783164  0.68591940     0.12500
H2073       H  0.99415378  0.33293707  0.56505181     0.12600
C2074       C  0.93628786  0.32821010  0.58138060     0.62100
F2075       F  0.55035366  0.34265810  0.70367288    -0.23100
F2076       F  0.56898776  0.38266443  0.66857089    -0.20400
F2077       F  0.57624753  0.31860883  0.66531059    -0.20100
F2078       F  0.92099503  0.36268588  0.57450764    -0.20100
F2079       F  0.91712821  0.30291150  0.59527525    -0.20500
F2080       F  0.94175752  0.31264621  0.55180257    -0.23100
C2081       C  0.87540553  0.71758338  0.01253967    -0.06000
C2082       C  0.87551792  0.72060574  0.97813162     0.00000
C2083       C  0.88405432  0.75911574  0.46721253    -0.08600
C2084       C  0.88323077  0.79167163  0.48754379    -0.06000
C2085       C  0.87859712  0.78909546  0.52088611    -0.00100
C2086       C  0.87448492  0.74970113  0.03323281    -0.08500
C2087       C  0.87348873  0.74343308  0.06971136     0.61900
H2088       H  0.87616375  0.68927544  0.02346088     0.12500
H2089       H  0.88622479  0.81986207  0.47733220     0.12600
C2090       C  0.89119329  0.76419828  0.43232146     0.62100
F2091       F  0.87252101  0.70494888  0.07778422    -0.23100
F2092       F  0.84701839  0.76045453  0.07845512    -0.20400
F2093       F  0.90000141  0.75906735  0.08790712    -0.20100
F2094       F  0.86573449  0.75247400  0.41011885    -0.20100
F2095       F  0.91717081  0.74272178  0.42806581    -0.20500
F2096       F  0.89752328  0.80201868  0.42533513    -0.25500
C2097       C  0.86204363  0.53816397  0.80137156    -0.06000
C2098       C  0.87954401  0.52811891  0.83167363     0.00000
C2099       C  0.89729648  0.49344152  0.83373179    -0.08600
C2100       C  0.89509044  0.46940851  0.80624361    -0.06000
C2101       C  0.87691513  0.47866732  0.77626374    -0.00100
C2102       C  0.86061423  0.51442640  0.77338970    -0.08500
C2103       C  0.84227680  0.52845558  0.74107532     0.61900
H2104       H  0.84878776  0.56451380  0.79998141     0.12500
H2105       H  0.90765452  0.44252995  0.80815939     0.12600
C2106       C  0.91795935  0.48018804  0.86490776     0.62100
F2107       F  0.83059994  0.56500723  0.74368166    -0.23100
F2108       F  0.81706917  0.50440504  0.73149878    -0.20400
F2109       F  0.86158611  0.52954499  0.71699017    -0.20100
F2110       F  0.89897573  0.46571311  0.88639991    -0.20100
F2111       F  0.93602768  0.51020816  0.87923329    -0.20500
F2112       F  0.93839348  0.45148429  0.85882935    -0.23100
C2113       C  0.90522050  0.51451940  0.54541082    -0.06000
C2114       C  0.87679198  0.53118730  0.53119838     0.00000
C2115       C  0.84831398  0.51664967  0.54005805    -0.08600
C2116       C  0.84959750  0.48635645  0.56307392    -0.06000
C2117       C  0.87811311  0.47044537  0.57762476    -0.00100
C2118       C  0.90642853  0.48443833  0.56834554    -0.08500
C2119       C  0.93864206  0.46897368  0.58165562     0.61900
H2120       H  0.92700533  0.52445864  0.53798575     0.12500
H2121       H  0.82825354  0.47593952  0.57101172     0.12600
C2122       C  0.82064405  0.55058846  0.03414241     0.62100
F2123       F  0.95229430  0.45459162  0.55592862    -0.23100
F2124       F  0.93817337  0.44003247  0.60467198    -0.20400
F2125       F  0.95703717  0.49864083  0.59587308    -0.20100
F2126       F  0.80607975  0.53984301  0.00327027    -0.20100
F2127       F  0.82839343  0.58905734  0.03370202    -0.20500
F2128       F  0.79947865  0.54575155  0.05613229    -0.23100
C2129       C  0.99464888  0.53857276  0.98745597    -0.06000
C2130       C  0.96808968  0.51599555  0.97575708     0.00000
C2131       C  0.96744295  0.47538880  0.48589255    -0.08600
C2132       C  0.49700939  0.46157834  0.50544036    -0.06000
C2133       C  0.52195319  0.48433606  0.52074447    -0.00100
C2134       C  0.51666983  0.52321732  0.01596472    -0.08500
C2135       C  0.54112342  0.55095022  0.03270456     0.61900
H2136       H  0.99441026  0.56874293  0.98174622     0.12500
H2137       H  0.49914503  0.43074681  0.50701960     0.12600
C2138       C  0.94028332  0.44904281  0.47329481     0.62100
F2139       F  0.53074497  0.58846080  0.03014546    -0.23100
F2140       F  0.56806406  0.54895782  0.01823922    -0.20400
F2141       F  0.55231517  0.54017512  0.56870461    -0.20100
F2142       F  0.93597769  0.45075352  0.93797580    -0.20100
F2143       F  0.91393011  0.45882280  0.48684906    -0.20500
F2144       F  0.94674890  0.41101118  0.48115678    -0.23100
C2145       C  0.62092824  0.78576444  0.75799425    -0.06000
C2146       C  0.62613822  0.78345130  0.72491639     0.00000
C2147       C  0.62546765  0.74696719  0.70988443    -0.08600
C2148       C  0.62183600  0.71424125  0.72930149    -0.06000
C2149       C  0.61797305  0.71652011  0.76284340    -0.00100
C2150       C  0.61658070  0.75318303  0.77716832    -0.08500
C2151       C  0.60985668  0.75838221  0.81219508     0.61900
H2152       H  0.62064807  0.81379578  0.76907868     0.12500
H2153       H  0.62201574  0.68621221  0.71820341     0.12600
C2154       C  0.62890502  0.74220546  0.67381674     0.62100
F2155       F  0.60638742  0.79656133  0.81978058    -0.23100
F2156       F  0.63438203  0.74385547  0.83419131    -0.20400
F2157       F  0.58234050  0.73961725  0.81621941    -0.20100
F2158       F  0.65735199  0.75711849  0.66799996    -0.20100
F2159       F  0.60473626  0.76100650  0.65432336    -0.20500
F2160       F  0.62771877  0.70412892  0.66446408    -0.23100
C2161       C  0.63549052  0.49779389  0.96226551    -0.06000
C2162       C  0.61059939  0.47097675  0.96078078     0.00000
C2163       C  0.58588645  0.47313005  0.93371622    -0.08600
C2164       C  0.58743598  0.50145424  0.90956079    -0.06000
C2165       C  0.61246888  0.52755343  0.91093919    -0.00100
C2166       C  0.63680756  0.52617137  0.93798390    -0.08500
C2167       C  0.66445323  0.55367679  0.94085150     0.61900
H2168       H  0.65413292  0.49677818  0.98297027     0.12500
H2169       H  0.56897190  0.50321833  0.88866668     0.12600
C2170       C  0.55777649  0.44620013  0.92967505     0.62100
F2171       F  0.68574809  0.54698639  0.96895244    -0.23100
F2172       F  0.65395353  0.59090659  0.94223377    -0.20400
F2173       F  0.67999921  0.54969488  0.91392625    -0.20100
F2174       F  0.53977954  0.45281296  0.95424408    -0.20100
F2175       F  0.56778268  0.40857279  0.93098590    -0.20500
F2176       F  0.53864287  0.45143364  0.89983091    -0.23100
C2177       C  0.59489476  0.50674641  0.65611141    -0.06000
C2178       C  0.61561576  0.47545695  0.66048980     0.00000
C2179       C  0.63614492  0.47167547  0.69051330    -0.08600
C2180       C  0.63489426  0.49935525  0.71506572    -0.06000
C2181       C  0.61398431  0.53061965  0.71073906    -0.00100
C2182       C  0.59377305  0.53461948  0.68035166    -0.08500
C2183       C  0.57104606  0.56785543  0.67285553     0.61900
H2184       H  0.57909611  0.50918025  0.63313886     0.12500
H2185       H  0.65003228  0.49608116  0.73836062     0.12600
C2186       C  0.65969983  0.43928008  0.69657032     0.62100
F2187       F  0.55833879  0.56938637  0.63988505    -0.23100
F2188       F  0.58644982  0.60220183  0.68049593    -0.20400
F2189       F  0.54647888  0.56393546  0.69081642    -0.20100
F2190       F  0.67887582  0.43961764  0.67238104    -0.20100
F2191       F  0.64407521  0.40458754  0.69624465    -0.20500
F2192       F  0.67865319  0.44252313  0.72671362    -0.23100
C2193       C  0.72272645  0.61151570  0.88271481    -0.06000
C2194       C  0.71370692  0.58775628  0.85528096     0.00000
C2195       C  0.73655416  0.56415070  0.84395336    -0.08600
C2196       C  0.76779635  0.56623393  0.85994780    -0.06000
C2197       C  0.77672982  0.59053081  0.88692496    -0.00100
C2198       C  0.75377569  0.61290543  0.89906996    -0.08500
C2199       C  0.76180238  0.63686024  0.92992684     0.61900
H2200       H  0.70495569  0.62868616  0.89171429     0.12500
H2201       H  0.78575222  0.54909467  0.85123304     0.12600
C2202       C  0.72834891  0.53753144  0.81481689     0.62100
F2203       F  0.73529896  0.65225104  0.94008355    -0.23100
F2204       F  0.78142880  0.66670622  0.92408679    -0.20400
F2205       F  0.77661411  0.61425468  0.95527505    -0.20100
F2206       F  0.71306728  0.55767617  0.78813135    -0.20100
F2207       F  0.70917789  0.50831530  0.82307609    -0.20500
F2208       F  0.75477716  0.52106011  0.80538954    -0.23100
C2209       C  0.96576155  0.66195285  0.85165190    -0.06000
C2210       C  0.96938946  0.65986611  0.88635259     0.00000
C2211       C  0.50122536  0.65554318  0.90527551    -0.08600
C2212       C  0.52670457  0.65641170  0.88745166    -0.06000
C2213       C  0.52290099  0.65674677  0.85277221    -0.00100
C2214       C  0.99151961  0.66223630  0.83398211    -0.08500
C2215       C  0.98535183  0.66621619  0.79668593     0.61900
H2216       H  0.94227859  0.66191044  0.83809349     0.12500
H2217       H  0.55019325  0.65489654  0.90086993     0.12600
C2218       C  0.50809561  0.65344236  0.94266051     0.62100
F2219       F  0.95418854  0.67409556  0.78534834    -0.23100
F2220       F  0.99290345  0.63269104  0.78198952    -0.20400
F2221       F  0.00301748  0.69615996  0.78688890    -0.20100
F2222       F  0.49800938  0.61867084  0.95343702    -0.20100
F2223       F  0.49314648  0.68306669  0.95621327    -0.20500
F2224       F  0.53980177  0.65659228  0.95427563    -0.23100
C2225       C  0.52553144  0.49729756  0.73641739    -0.06000
C2226       C  0.52155161  0.51363025  0.76659487     0.00000
C2227       C  0.49117581  0.51590074  0.77569131    -0.08600
C2228       C  0.96741955  0.50171422  0.75373040    -0.06000
C2229       C  0.97053136  0.48777910  0.72237957    -0.00100
C2230       C  0.00057245  0.48577653  0.71234773    -0.08500
C2231       C  0.00518495  0.47126014  0.67860580     0.61900
H2232       H  0.54892397  0.49609048  0.72981668     0.12500
H2233       H  0.94450208  0.50116189  0.76156318     0.12600
C2234       C  0.48625496  0.52879792  0.80986136     0.62100
F2235       F  0.53579552  0.47311774  0.67569078    -0.23100
F2236       F  0.98527590  0.49073367  0.65491972    -0.20400
F2237       F  0.99902238  0.43247408  0.67599141    -0.20100
F2238       F  0.49205144  0.56746584  0.81387863    -0.20100
F2239       F  0.50612405  0.50872092  0.83338830    -0.20500
F2240       F  0.96039252  0.51650138  0.81760325    -0.23100
loop_ 
_geom_bond_atom_site_label_1 
_geom_bond_atom_site_label_2 
_geom_bond_distance 
_geom_bond_site_symmetry_2 
_ccdc_geom_bond_type 
Fe1          O17   2.054       .  S
Fe1           O7   2.129       .  S
Fe1          O14   2.143       .  S
Fe1           O6   2.043       .  S
Fe1          O12   1.924       .  S
Fe2           O5   2.009       .  S
Fe2           O9   2.103       .  S
Fe2          O13   2.016       .  S
Fe2          O18   2.112       .  S
Fe2          O12   1.928       .  S
Fe3          O21   2.114       .  S
Fe3           O8   2.041       .  S
Fe3          O15   2.029       .  S
Fe3           O4   2.100       .  S
Fe3          O12   1.939       .  S
O4           C11   1.275       .  A
O5           C19   1.257       .  A
O6           C11   1.267       .  A
O7           C10   1.285       .  A
O8           C20   1.265       .  A
O9           C22   1.272       .  A
C10          O15   1.267       .  A
C10         C485   1.490       .  S
C11         C514   1.487       .  S
O13          C16   1.266       .  A
O14          C16   1.289       .  A
C16         C469   1.497       .  S
O17          C22   1.265       .  A
O18          C20   1.277       .  A
C19          O21   1.276       .  A
C19         C546   1.456       .  S
C20         C501   1.494       .  S
C22         C533   1.508       .  S
Fe23         O39   2.047       .  S
Fe23         O29   2.146       .  S
Fe23         O36   2.158       .  S
Fe23         O28   2.055       .  S
Fe23         O34   1.924       .  S
Fe24         O27   2.021       .  S
Fe24         O31   2.097       .  S
Fe24         O35   2.023       .  S
Fe24        O600   2.117       .  S
Fe24         O34   1.930       .  S
Fe25         O43   2.126       .  S
Fe25         O30   2.027       .  S
Fe25         O37   2.010       .  S
Fe25         O26   2.092       .  S
Fe25         O34   1.931       .  S
O26          C33   1.274       .  A
O27          C41   1.259       .  A
O28          C33   1.268       .  A
O29          C32   1.289       .  A
O30         C602   1.260       .  A
O31          C44   1.271       .  A
C32          O37   1.262       .  A
C32         C418   1.500       .  S
C33         C517   1.478       .  S
O35          C38   1.267       .  A
O36          C38   1.292       .  A
C38         C402   1.506       .  S
O39          C44   1.265       .  A
O40        Fe584   2.105       .  S
O40          C42   1.279   1_556  A
C41          O43   1.277       .  A
C41         C450   1.489       .  S
C42         O590   1.264   1_554  A
C42         C434   1.477       .  S
C44         C530   1.503       .  S
Fe45         O61   2.136       .  S
Fe45         O51   2.046       .  S
Fe45         O58   2.049       .  S
Fe45         O50   2.121       .  S
Fe45         O56   1.922       .  S
Fe46         O49   2.126       .  S
Fe46         O53   2.032       .  S
Fe46         O57   2.106       .  S
Fe46         O62   2.014       .  S
Fe46         O56   1.922       .  S
Fe47         O65   2.033       .  S
Fe47         O52   2.131       .  S
Fe47         O59   2.114       .  S
Fe47         O48   2.018       .  S
Fe47         O56   1.935       .  S
O48          C55   1.263       .  A
O49          C63   1.284       .  A
O50          C55   1.282       .  A
O51          C54   1.266       .  A
O52          C64   1.280       .  A
O53          C66   1.269       .  A
C54          O59   1.281       .  A
C54         C373   1.494       .  S
C55         C437   1.464       .  S
O57          C60   1.277       .  A
O58          C60   1.262       .  A
C60         C386   1.505       .  S
O61          C66   1.286       .  A
O62          C64   1.255       .  A
C63          O65   1.261       .  A
C63         C421   1.499       .  S
C64         C549   1.471       .  S
C66         C354   1.497       .  S
Fe67         O83   2.143       .  S
Fe67         O73   2.046       .  S
Fe67         O80   2.047       .  S
Fe67         O72   2.140       .  S
Fe67         O78   1.922       .  S
Fe68         O75   2.036       .  S
Fe68         O79   2.100       .  S
Fe68         O84   2.018       .  S
Fe68        O631   2.135   1_554  S
Fe68         O78   1.931       .  S
Fe69         O87   2.036       .  S
Fe69         O74   2.108       .  S
Fe69         O81   2.098       .  S
Fe69         O70   2.015       .  S
Fe69         O78   1.935       .  S
O70          C77   1.266       .  A
O71        Fe628   2.123       .  S
O71          C85   1.279       .  A
O72          C77   1.287       .  A
O73          C76   1.266       .  A
O74          C86   1.273       .  A
O75          C88   1.268       .  A
C76          O81   1.273       .  A
C76         C370   1.499       .  S
C77         C498   1.500       .  S
O79          C82   1.274       .  A
O80          C82   1.261       .  A
C82         C389   1.503       .  S
O83          C88   1.289       .  A
O84          C86   1.256       .  A
C85         O647   1.268       .  A
C85         C482   1.504       .  S
C86         C453   1.480       .  S
O87         C645   1.268   1_554  A
C88         C338   1.487       .  S
Fe89        O105   2.161       .  S
Fe89         O95   2.058       .  S
Fe89        O102   2.053       .  S
Fe89         O94   2.141       .  S
Fe89        O100   1.919       .  S
Fe90         O97   2.032       .  S
Fe90        O101   2.099       .  S
Fe90        O106   2.017       .  S
Fe90        O653   2.114   1_554  S
Fe90        O100   1.927       .  S
Fe91        O109   2.036       .  S
Fe91         O96   2.116       .  S
Fe91        O103   2.098       .  S
Fe91         O92   2.017       .  S
Fe91        O100   1.940       .  S
O92          C99   1.264       .  A
O93        Fe650   2.121       .  S
O93         C107   1.280       .  A
O94          C99   1.288       .  A
O95          C98   1.271       .  A
O96         C108   1.274       .  A
O97         C110   1.268       .  A
C98         O103   1.274       .  A
C98         C322   1.496       .  S
C99         C290   1.482       .  S
O101        C104   1.274       .  A
O102        C104   1.261       .  A
C104        C309   1.510       .  S
O105        C110   1.293       .  A
O106        C108   1.256       .  A
C107        O669   1.263       .  A
C107        C274   1.478       .  S
C108        C258   1.480       .  S
O109        C667   1.266   1_554  A
C110        C405   1.511       .  S
Fe111       O127   2.148       .  S
Fe111       O117   2.050       .  S
Fe111       O124   2.054       .  S
Fe111       O116   2.139       .  S
Fe111       O122   1.919       .  S
Fe112       O115   2.124       .  S
Fe112       O119   2.016       .  S
Fe112       O123   2.108       .  S
Fe112       O128   2.005       .  S
Fe112       O122   1.925       .  S
Fe113       O131   2.030       .  S
Fe113       O118   2.133       .  S
Fe113       O125   2.111       .  S
Fe113       O114   2.020       .  S
Fe113       O122   1.929       .  S
O114        C121   1.267       .  A
O115        C129   1.279       .  A
O116        C121   1.286       .  A
O117        C120   1.266       .  A
O118        C130   1.280       .  A
O119        C132   1.265       .  A
C120        O125   1.279       .  A
C120        C325   1.495       .  S
C121        C242   1.507       .  S
O123        C126   1.277       .  A
O124        C126   1.263       .  A
C126        C306   1.511       .  S
O127        C132   1.290       .  A
O128        C130   1.251       .  A
C129        O131   1.264       .  A
C129        C226   1.499       .  S
C130        C213   1.488       .  S
C132        C466   1.495       .  S
Fe133       O149   2.061       .  S
Fe133       O139   2.134       .  S
Fe133       O146   2.153       .  S
Fe133       O138   2.048       .  S
Fe133       O144   1.920       .  S
Fe134       O137   2.016       .  S
Fe134       O141   2.093       .  S
Fe134       O145   2.019       .  S
Fe134       O710   2.108       .  S
Fe134       O144   1.923       .  S
Fe135       O153   2.119       .  S
Fe135       O140   2.037       .  S
Fe135       O147   2.013       .  S
Fe135       O136   2.099       .  S
Fe135       O144   1.935       .  S
O136        C143   1.275       .  A
O137        C151   1.258       .  A
O138        C143   1.268       .  A
O139        C142   1.286       .  A
O140        C712   1.265       .  A
O141        C154   1.268       .  A
C142        O147   1.264       .  A
C142        C229   1.489       .  S
C143        C197   1.489       .  S
O145        C148   1.266       .  A
O146        C148   1.292       .  A
C148        C341   1.486       .  S
O149        C154   1.265       .  A
O150       Fe694   2.117   1_554  S
O150        C152   1.278       .  A
C151        O153   1.277       .  A
C151        C261   1.474       .  S
C152        O700   1.264   1_554  A
C152        C245   1.489       .  S
C154        C181   1.507       .  S
Fe155       O171   2.050       .  S
Fe155       O161   2.119       .  S
Fe155       O168   2.127       .  S
Fe155       O160   2.055       .  S
Fe155       O166   1.934       .  S
Fe156       O159   2.024       .  S
Fe156       O163   2.105       .  S
Fe156       O167   2.038       .  S
Fe156       O172   2.115       .  S
Fe156       O166   1.935       .  S
Fe157       O175   2.101       .  S
Fe157       O162   2.040       .  S
Fe157       O169   2.022       .  S
Fe157       O158   2.104       .  S
Fe157       O166   1.934       .  S
O158        C165   1.278       .  A
O159        C173   1.260       .  A
O160        C165   1.270       .  A
O161        C164   1.279       .  A
O162        C174   1.264       .  A
O163        C176   1.274       .  A
C164        O169   1.262       .  A
C164        C277   1.468       .  S
C165        C194   1.482       .  S
O167        C170   1.267       .  A
O168        C170   1.283       .  A
C170        C357   1.497       .  S
O171        C176   1.268       .  A
O172        C174   1.281       .  A
C173        O175   1.277       .  A
C173        C210   1.472       .  S
C174        C293   1.499       .  S
C176        C178   1.508       .  S
C177        C178   1.410       .  A
C177        C182   1.410       .  A
C177        H184   1.081       .  S
C178        C179   1.423       .  A
C179        C180   1.414       .  A
C179        C186   1.521       .  S
C180        C181   1.412       .  A
C180        H185   1.082       .  S
C181        C182   1.424       .  A
C182        C183   1.521       .  S
C183        F187   1.385       .  S
C183        F188   1.381       .  S
C183        F189   1.383       .  S
C186        F190   1.382       .  S
C186        F191   1.383       .  S
C186        F192   1.385       .  S
C193        C194   1.406       .  A
C193       C1318   1.410       .  A
C193        H200   1.083       .  S
C194        C195   1.415       .  A
C195       C1316   1.409       .  A
C195        C202   1.519       .  S
C196        C197   1.409       .  A
C196       C1315   1.407   1_455  A
C196        H201   1.083       .  S
C197        C198   1.418       .  A
C198       C1313   1.410   1_455  A
C198        C199   1.519       .  S
C199        F203   1.384   1_455  S
C199        F204   1.384       .  S
C199        F205   1.382       .  S
C202        F206   1.382       .  S
C202        F207   1.383       .  S
C202        F208   1.385       .  S
C209        C210   1.398   1_565  A
C209        C214   1.402       .  A
C209        H216   1.083       .  S
C210        C211   1.417       .  A
C211        C212   1.404       .  A
C211        C218   1.519       .  S
C212        C213   1.407   1_545  A
C212        H217   1.085       .  S
C213        C214   1.430       .  A
C214        C215   1.524       .  S
C215        F219   1.384       .  S
C215        F220   1.383       .  S
C215        F221   1.382       .  S
C218        F222   1.381       .  S
C218        F223   1.382       .  S
C218        F224   1.380       .  S
C225        C226   1.416       .  A
C225        C230   1.409   1_565  A
C225        H232   1.081       .  S
C226        C227   1.421       .  A
C227        C228   1.407       .  A
C227        C234   1.522       .  S
C228        C229   1.409   1_565  A
C228        H233   1.083       .  S
C229        C230   1.413       .  A
C230        C231   1.519       .  S
C231        F235   1.385       .  S
C231        F236   1.382       .  S
C231        F237   1.383       .  S
C234        F238   1.382       .  S
C234        F239   1.384       .  S
C234        F240   1.385       .  S
C241        C242   1.418   1_545  A
C241        C246   1.405       .  A
C241        H248   1.081       .  S
C242        C243   1.423       .  A
C243        C244   1.413       .  A
C243        C250   1.520       .  S
C244        C245   1.411   1_565  A
C244        H249   1.082       .  S
C245        C246   1.411       .  A
C246        C247   1.521       .  S
C247        F251   1.385       .  S
C247        F252   1.384       .  S
C247        F813   1.382       .  S
C250        F254   1.383       .  S
C250        F255   1.381       .  S
C250        F256   1.385       .  S
F253        C807   1.383       .  S
C257        C258   1.415       .  A
C257        C262   1.401   1_554  A
C257        H264   1.082       .  S
C258        C819   1.413   1_565  A
C259        C260   1.399       .  A
C259        C818   1.415   1_545  A
C259        C266   1.516       .  S
C260        C261   1.408       .  A
C260        H265   1.081       .  S
C261        C822   1.408   1_545  A
C262        C821   1.409   1_565  A
C262        C263   1.520       .  S
C263        F267   1.385       .  S
C263        F269   1.383       .  S
C263        F828   1.384       .  S
C266        F270   1.381       .  S
C266        F272   1.385       .  S
C266        F831   1.376       .  S
F268        C823   1.383       .  S
F271        C826   1.379       .  S
C273        C274   1.407   1_545  A
C273        C278   1.405       .  A
C273        H280   1.083       .  S
C274        C275   1.416       .  A
C275        C276   1.408   1_565  A
C275        C282   1.518       .  S
C276        C277   1.404       .  A
C276        H281   1.083       .  S
C277        C278   1.409       .  A
C278        C279   1.516       .  S
C279        F283   1.384       .  S
C279        F284   1.383       .  S
C279        F285   1.383       .  S
C282        F286   1.383       .  S
C282        F287   1.382       .  S
C282        F288   1.385       .  S
C289        C290   1.401       .  A
C289        C294   1.414   1_565  A
C289        H296   1.083       .  S
C290        C291   1.418       .  A
C291        C292   1.406   1_565  A
C291        C298   1.521       .  S
C292        C293   1.407       .  A
C292        H297   1.082       .  S
C293        C294   1.427       .  A
C294        C295   1.520       .  S
C295        F299   1.385       .  S
C295        F300   1.383       .  S
C295        F301   1.384       .  S
C298        F302   1.383       .  S
C298        F303   1.377   1_565  S
C298        F304   1.384   1_565  S
C305        C306   1.406       .  A
C305        C310   1.413       .  A
C305        H312   1.081       .  S
C306        C307   1.429       .  A
C307        C308   1.413       .  A
C307        C314   1.520       .  S
C308        C309   1.407       .  A
C308        H313   1.082       .  S
C309        C310   1.429       .  A
C310        C311   1.522       .  S
C311        F315   1.385       .  S
C311        F316   1.383       .  S
C311        F317   1.384       .  S
C314        F318   1.382       .  S
C314        F319   1.384       .  S
C314        F320   1.385       .  S
C321        C322   1.408       .  A
C321       C1446   1.408       .  A
C321        H328   1.083       .  S
C322        C323   1.422       .  A
C323       C1444   1.409       .  A
C323        C330   1.515       .  S
C324        C325   1.406       .  A
C324       C1443   1.413   1_455  A
C324        H329   1.083       .  S
C325        C326   1.420       .  A
C326       C1441   1.408   1_455  A
C326        C327   1.521       .  S
C327        F331   1.385   1_455  S
C327        F332   1.384       .  S
C327        F333   1.383       .  S
C330        F334   1.383   1_565  S
C330        F335   1.379       .  S
C330        F336   1.385       .  S
C337        C338   1.405       .  A
C337        C902   1.414   1_554  A
C337        H344   1.083       .  S
C338        C339   1.416       .  A
C339        C900   1.413   1_554  A
C339        C346   1.517       .  S
C340        C341   1.408       .  A
C340        C899   1.412       .  A
C340        H345   1.083       .  S
C341        C342   1.415       .  A
C342        C897   1.411       .  A
C342        C343   1.517       .  S
C343        F347   1.385       .  S
C343        F348   1.382       .  S
C343        F349   1.383       .  S
C346        F350   1.383       .  S
C346        F351   1.383   1_554  S
C346        F352   1.384   1_554  S
C353        C354   1.409       .  A
C353        C358   1.410       .  A
C353        H360   1.083       .  S
C354        C355   1.419       .  A
C355        C356   1.413       .  A
C355        C362   1.519       .  S
C356        C357   1.410       .  A
C356        H361   1.083       .  S
C357        C358   1.420       .  A
C358        C359   1.520       .  S
C359        F363   1.385       .  S
C359        F364   1.383       .  S
C359        F365   1.383       .  S
C362        F366   1.383       .  S
C362        F367   1.383       .  S
C362        F368   1.385       .  S
C369        C370   1.410       .  A
C369        C374   1.409       .  A
C369        H376   1.082       .  S
C370        C371   1.420       .  A
C371        C372   1.412       .  A
C371        C378   1.518       .  S
C372        C373   1.407       .  A
C372        H377   1.083       .  S
C373        C374   1.422       .  A
C374        C375   1.523       .  S
C375        F379   1.385       .  S
C375        F380   1.383       .  S
C375        F381   1.383       .  S
C378        F382   1.383       .  S
C378        F383   1.384       .  S
C378        F384   1.379       .  S
C385        C390   1.409   1_655  A
C385       C1506   1.400       .  A
C385        H392   1.083       .  S
C386        C387   1.427       .  A
C386       C1505   1.405       .  A
C387        C388   1.412       .  A
C387        C394   1.521       .  S
C388       C1509   1.407       .  A
C388        H393   1.082       .  S
C389        C390   1.432       .  A
C389       C1508   1.408   1_455  A
C390        C391   1.524       .  S
C391        F395   1.385       .  S
C391        F396   1.383       .  S
C391        F397   1.383       .  S
C394        F398   1.382       .  S
C394        F399   1.384       .  S
C394        F400   1.385       .  S
C401        C402   1.414       .  A
C401        C406   1.413       .  A
C401        H408   1.083       .  S
C402        C963   1.418       .  A
C403        C404   1.419       .  A
C403        C962   1.419       .  A
C403        C410   1.519       .  S
C404        C405   1.416   1_556  A
C404        H409   1.083       .  S
C405        C966   1.418       .  A
C406        C965   1.418       .  A
C406        C407   1.519       .  S
C407        F411   1.385       .  S
C407        F412   1.383       .  S
C407        F413   1.383       .  S
C410        F414   1.383       .  S
C410        F415   1.384       .  S
C410        F416   1.384       .  S
C417        C418   1.402       .  A
C417        C422   1.416       .  A
C417        H424   1.082       .  S
C418        C419   1.429       .  A
C419        C420   1.402       .  A
C419        C426   1.516       .  S
C420        C421   1.397       .  A
C420        H425   1.083       .  S
C421        C422   1.432       .  A
C422        C423   1.521       .  S
C423        F427   1.385       .  S
C423        F428   1.383       .  S
C423        F429   1.383       .  S
C426        F430   1.381       .  S
C426        F431   1.385       .  S
C426        F432   1.385       .  S
C433        C434   1.405       .  A
C433        C438   1.399       .  A
C433        H440   1.085       .  S
C434        C435   1.416       .  A
C435        C436   1.409       .  A
C435       C1002   1.518       .  S
C436        C437   1.405       .  A
C436        H441   1.084       .  S
C437        C438   1.415       .  A
C438        C439   1.520       .  S
C439        F443   1.382       .  S
C439        F444   1.381       .  S
C439        F445   1.383       .  S
C442        C995   1.519       .  S
C442        F446   1.383       .  S
C442        F447   1.384       .  S
C442        F448   1.379       .  S
C449        C450   1.414       .  A
C449       C1574   1.404       .  A
C449        H456   1.080       .  S
C450       C1011   1.415       .  A
C451       C1010   1.414       .  A
C451       C1572   1.401   1_556  A
C451        C458   1.517       .  S
C452        C453   1.411   1_655  A
C452       C1571   1.401   1_554  A
C452        H457   1.081       .  S
C453       C1014   1.411       .  A
C454       C1569   1.401   1_455  A
C454       C1013   1.413       .  A
C454        C455   1.522       .  S
C455        F459   1.385       .  S
C455        F460   1.383       .  S
C455       F1021   1.384       .  S
C458        F463   1.382       .  S
C458        F464   1.385       .  S
C458       F1022   1.376       .  S
F461       C1015   1.384       .  S
F462       C1018   1.373       .  S
C465        C466   1.414       .  A
C465        C470   1.412       .  A
C465        H472   1.083       .  S
C466        C467   1.415       .  A
C467        C468   1.410       .  A
C467        C474   1.519       .  S
C468        C469   1.413       .  A
C468        H473   1.083       .  S
C469        C470   1.416       .  A
C470        C471   1.519       .  S
C471        F475   1.385       .  S
C471        F476   1.383       .  S
C471        F477   1.383       .  S
C474        F478   1.384       .  S
C474        F479   1.382       .  S
C474        F480   1.385       .  S
C481        C482   1.415       .  A
C481        C486   1.409       .  A
C481        H488   1.082       .  S
C482        C483   1.425       .  A
C483        C484   1.410       .  A
C483        C490   1.522       .  S
C484        C485   1.407       .  A
C484        H489   1.083       .  S
C485        C486   1.414       .  A
C486        C487   1.519       .  S
C487        F491   1.385       .  S
C487        F492   1.382       .  S
C487        F493   1.383       .  S
C490        F494   1.383       .  S
C490        F495   1.384       .  S
C490        F496   1.385       .  S
C497        C498   1.414       .  A
C497        C502   1.406       .  A
C497        H504   1.082       .  S
C498        C499   1.419       .  A
C499        C500   1.412       .  A
C499        C506   1.519       .  S
C500        C501   1.412       .  A
C500        H505   1.082       .  S
C501        C502   1.416       .  A
C502        C503   1.521       .  S
C503        F507   1.385       .  S
C503        F508   1.384       .  S
C503        F509   1.382       .  S
C506        F510   1.384       .  S
C506        F511   1.382       .  S
C506        F512   1.385       .  S
C513        C514   1.410       .  A
C513        C518   1.406       .  A
C513        H520   1.083       .  S
C514        C515   1.417       .  A
C515        C516   1.409       .  A
C515        C522   1.518       .  S
C516        C517   1.405       .  A
C516        H521   1.084       .  S
C517        C518   1.412       .  A
C518        C519   1.519       .  S
C519        F523   1.385       .  S
C519        F524   1.383       .  S
C519        F525   1.384       .  S
C522        F526   1.384       .  S
C522        F527   1.382       .  S
C522        F528   1.385       .  S
C529        C530   1.411       .  A
C529        C534   1.411       .  A
C529        H536   1.082       .  S
C530       C1651   1.422       .  A
C531        C532   1.412       .  A
C531       C1650   1.424   1_455  A
C531        C538   1.520       .  S
C532        C533   1.411       .  A
C532        H537   1.082       .  S
C533       C1654   1.423   1_455  A
C534       C1653   1.423       .  A
C534        C535   1.522       .  S
C535        F539   1.385       .  S
C535        F540   1.382       .  S
C535        F541   1.383       .  S
C538        F542   1.382   1_455  S
C538        F543   1.384   1_455  S
C538        F544   1.385       .  S
C545        C546   1.402       .  A
C545       C1670   1.403   1_455  A
C545        H552   1.084       .  S
C546        C547   1.410   1_455  A
C547       C1668   1.400       .  A
C547        C554   1.517   1_655  S
C548        C549   1.402       .  A
C548       C1667   1.407       .  A
C548        H553   1.083       .  S
C549        C550   1.418       .  A
C550       C1665   1.404       .  A
C550        C551   1.518       .  S
C551        F556   1.382       .  S
C551        F557   1.381       .  S
C551       F1675   1.384       .  S
C554        F558   1.382       .  S
C554        F559   1.383       .  S
C554       F1680   1.382   1_455  S
F555       C1671   1.385   1_455  S
F560       C1674   1.380       .  S
Fe561       O577   2.053       .  S
Fe561       O567   2.132       .  S
Fe561       O574   2.143       .  S
Fe561       O566   2.051       .  S
Fe561       O572   1.923       .  S
Fe562       O565   2.015       .  S
Fe562       O569   2.097       .  S
Fe562       O573   2.022       .  S
Fe562       O578   2.110       .  S
Fe562       O572   1.934       .  S
Fe563       O581   2.099       .  S
Fe563       O568   2.042       .  S
Fe563       O575   2.026       .  S
Fe563       O564   2.096       .  S
Fe563       O572   1.938       .  S
O564        C571   1.274       .  A
O565        C579   1.258       .  A
O566        C571   1.269       .  A
O567        C570   1.285       .  A
O568        C580   1.266       .  A
O569        C582   1.269       .  A
C570        O575   1.265       .  A
C570       C1045   1.490       .  S
C571       C1074   1.491       .  S
O573        C576   1.268       .  A
O574        C576   1.289       .  A
C576       C1029   1.502       .  S
O577        C582   1.266       .  A
O578        C580   1.276       .  A
C579        O581   1.276       .  A
C579       C1106   1.457       .  S
C580       C1061   1.497       .  S
C582       C1093   1.506       .  S
Fe583       O599   2.055       .  S
Fe583       O589   2.139       .  S
Fe583       O596   2.162       .  S
Fe583       O588   2.058       .  S
Fe583       O594   1.923       .  S
Fe584       O587   2.023       .  S
Fe584       O591   2.086       .  S
Fe584       O595   2.026       .  S
Fe584       O594   1.925       .  S
Fe585       O603   2.120       .  S
Fe585       O590   2.029       .  S
Fe585       O597   2.004       .  S
Fe585       O586   2.092       .  S
Fe585       O594   1.943       .  S
O586        C593   1.273       .  A
O587        C601   1.257       .  A
O588        C593   1.269       .  A
O589        C592   1.288       .  A
O591        C604   1.267       .  A
C592        O597   1.261       .  A
C592        C978   1.493       .  S
C593       C1077   1.482       .  S
O595        C598   1.268       .  A
O596        C598   1.294       .  A
C598        C962   1.511       .  S
O599        C604   1.265       .  A
O600        C602   1.279       .  A
C601        O603   1.274       .  A
C601       C1010   1.484       .  S
C602        C994   1.487       .  S
C604       C1090   1.504       .  S
Fe605       O621   2.144       .  S
Fe605       O611   2.044       .  S
Fe605       O618   2.043       .  S
Fe605       O610   2.130       .  S
Fe605       O616   1.920       .  S
Fe606       O609   2.117       .  S
Fe606       O613   2.030       .  S
Fe606       O617   2.104       .  S
Fe606       O622   2.016       .  S
Fe606       O616   1.918       .  S
Fe607       O625   2.029       .  S
Fe607       O612   2.127       .  S
Fe607       O619   2.113       .  S
Fe607       O608   2.018       .  S
Fe607       O616   1.931       .  S
O608        C615   1.262       .  A
O609        C623   1.283       .  A
O610        C615   1.283       .  A
O611        C614   1.267       .  A
O612        C624   1.279       .  A
O613        C626   1.267       .  A
C614        O619   1.281       .  A
C614        C933   1.492       .  S
C615        C997   1.470       .  S
O617        C620   1.276       .  A
O618        C620   1.262       .  A
C620        C946   1.499       .  S
O621        C626   1.287       .  A
O622        C624   1.255       .  A
C623        O625   1.261       .  A
C623        C981   1.492       .  S
C624       C1109   1.474       .  S
C626        C914   1.500       .  S
Fe627       O643   2.143       .  S
Fe627       O633   2.047       .  S
Fe627       O640   2.042       .  S
Fe627       O632   2.136       .  S
Fe627       O638   1.923       .  S
Fe628       O635   2.027       .  S
Fe628       O639   2.101       .  S
Fe628       O644   2.021       .  S
Fe628       O638   1.925       .  S
Fe629       O647   2.039       .  S
Fe629       O634   2.104       .  S
Fe629       O641   2.092       .  S
Fe629       O630   2.015       .  S
Fe629       O638   1.932       .  S
O630        C637   1.266       .  A
O631        C645   1.281       .  A
O632        C637   1.286       .  A
O633        C636   1.267       .  A
O634        C646   1.272       .  A
O635        C648   1.267       .  A
C636        O641   1.272       .  A
C636        C930   1.497       .  S
C637       C1058   1.497       .  S
O639        C642   1.275       .  A
O640        C642   1.259       .  A
C642        C949   1.504       .  S
O643        C648   1.289       .  A
O644        C646   1.259       .  A
C645       C1042   1.509       .  S
C646       C1013   1.480       .  S
C648        C898   1.485       .  S
Fe649       O665   2.160       .  S
Fe649       O655   2.057       .  S
Fe649       O662   2.052       .  S
Fe649       O654   2.142       .  S
Fe649       O660   1.922       .  S
Fe650       O657   2.025       .  S
Fe650       O661   2.092       .  S
Fe650       O666   2.021       .  S
Fe650       O660   1.922       .  S
Fe651       O669   2.033       .  S
Fe651       O656   2.126       .  S
Fe651       O663   2.091       .  S
Fe651       O652   2.000       .  S
Fe651       O660   1.930       .  S
O652        C659   1.259       .  A
O653        C667   1.281       .  A
O654        C659   1.288       .  A
O655        C658   1.272       .  A
O656        C668   1.276       .  A
O657        C670   1.268       .  A
C658        O663   1.273       .  A
C658        C882   1.499       .  S
C659        C850   1.495       .  S
O661        C664   1.272       .  A
O662        C664   1.262       .  A
C664        C869   1.494       .  S
O665        C670   1.294       .  A
O666        C668   1.257       .  A
C667        C834   1.477       .  S
C668        C818   1.483       .  S
C670        C965   1.506       .  S
Fe671       O687   2.126       .  S
Fe671       O677   2.039       .  S
Fe671       O684   2.041       .  S
Fe671       O676   2.127       .  S
Fe671       O682   1.925       .  S
Fe672       O675   2.128       .  S
Fe672       O679   2.034       .  S
Fe672       O683   2.103       .  S
Fe672       O688   2.017       .  S
Fe672       O682   1.933       .  S
Fe673       O691   2.032       .  S
Fe673       O678   2.106       .  S
Fe673       O685   2.091       .  S
Fe673       O674   2.018       .  S
Fe673       O682   1.935       .  S
O674        C681   1.267       .  A
O675        C689   1.280       .  A
O676        C681   1.284       .  A
O677        C680   1.263       .  A
O678        C690   1.275       .  A
O679        C692   1.268       .  A
C680        O685   1.273       .  A
C680        C885   1.486       .  S
C681        C802   1.494       .  S
O683        C686   1.276       .  A
O684        C686   1.260       .  A
C686        C866   1.505       .  S
O687        C692   1.285       .  A
O688        C690   1.254       .  A
C689        O691   1.266       .  A
C689        C786   1.502       .  S
C690        C773   1.471       .  S
C692       C1026   1.499       .  S
Fe693       O709   2.064       .  S
Fe693       O699   2.134       .  S
Fe693       O706   2.151       .  S
Fe693       O698   2.048       .  S
Fe693       O704   1.922       .  S
Fe694       O697   2.011       .  S
Fe694       O701   2.103       .  S
Fe694       O705   2.024       .  S
Fe694       O704   1.928       .  S
Fe695       O713   2.116       .  S
Fe695       O700   2.034       .  S
Fe695       O707   2.025       .  S
Fe695       O696   2.097       .  S
Fe695       O704   1.940       .  S
O696        C703   1.275       .  A
O697        C711   1.257       .  A
O698        C703   1.268       .  A
O699        C702   1.286       .  A
O701        C714   1.272       .  A
C702        O707   1.266       .  A
C702        C789   1.494       .  S
C703        C757   1.487       .  S
O705        C708   1.266       .  A
O706        C708   1.291       .  A
C708        C901   1.485       .  S
O709        C714   1.266       .  A
O710        C712   1.275       .  A
C711        O713   1.276       .  A
C711        C821   1.478       .  S
C712        C805   1.493       .  S
C714        C741   1.512       .  S
Fe715       O731   2.051       .  S
Fe715       O721   2.121       .  S
Fe715       O728   2.132       .  S
Fe715       O720   2.056       .  S
Fe715       O726   1.925       .  S
Fe716       O719   2.021       .  S
Fe716       O723   2.107       .  S
Fe716       O727   2.037       .  S
Fe716       O732   2.119       .  S
Fe716       O726   1.917       .  S
Fe717       O735   2.100       .  S
Fe717       O722   2.028       .  S
Fe717       O729   2.013       .  S
Fe717       O718   2.093       .  S
Fe717       O726   1.933       .  S
O718        C725   1.275       .  A
O719        C733   1.255       .  A
O720        C725   1.270       .  A
O721        C724   1.281       .  A
O722        C734   1.262       .  A
O723        C736   1.275       .  A
C724        O729   1.261       .  A
C724        C837   1.461       .  S
C725        C754   1.477       .  S
O727        C730   1.267       .  A
O728        C730   1.284       .  A
C730        C917   1.498       .  S
O731        C736   1.268       .  A
O732        C734   1.286       .  A
C733        O735   1.272       .  A
C733        C770   1.466       .  S
C734        C853   1.497       .  S
C736        C738   1.511       .  S
C737        C738   1.411       .  A
C737        C742   1.411       .  A
C737        H744   1.081       .  S
C738        C739   1.423       .  A
C739        C740   1.416       .  A
C739        C746   1.520       .  S
C740        C741   1.412       .  A
C740        H745   1.082       .  S
C741        C742   1.425       .  A
C742        C743   1.520       .  S
C743        F747   1.385       .  S
C743        F748   1.379       .  S
C743        F749   1.383       .  S
C746        F750   1.382       .  S
C746        F751   1.384       .  S
C746        F752   1.384       .  S
C753        C754   1.404       .  A
C753       C1878   1.408       .  A
C753        H760   1.082       .  S
C754        C755   1.413       .  A
C755       C1876   1.406       .  A
C755        C762   1.519       .  S
C756       C1875   1.406   1_455  A
C756        C757   1.408       .  A
C756        H761   1.083       .  S
C757        C758   1.418       .  A
C758       C1873   1.410   1_455  A
C758        C759   1.519       .  S
C759        F763   1.385   1_455  S
C759        F764   1.384       .  S
C759        F765   1.382       .  S
C762        F766   1.382       .  S
C762        F767   1.384       .  S
C762        F768   1.385       .  S
C769        C770   1.402   1_565  A
C769        C774   1.402       .  A
C769        H776   1.084       .  S
C770        C771   1.415       .  A
C771        C772   1.402       .  A
C771        C778   1.521       .  S
C772        C773   1.404   1_545  A
C772        H777   1.083       .  S
C773        C774   1.420       .  A
C774        C775   1.522       .  S
C775        F779   1.382       .  S
C775        F780   1.384       .  S
C775        F781   1.382       .  S
C778        F782   1.379       .  S
C778        F783   1.382       .  S
C778        F784   1.381       .  S
C785        C786   1.415       .  A
C785        C790   1.408   1_565  A
C785        H792   1.081       .  S
C786        C787   1.421       .  A
C787        C788   1.411       .  A
C787        C794   1.521       .  S
C788        C789   1.411   1_565  A
C788        H793   1.083       .  S
C789        C790   1.415       .  A
C790        C791   1.520       .  S
C791        F795   1.385       .  S
C791        F796   1.382       .  S
C791        F797   1.383       .  S
C794        F798   1.382       .  S
C794        F799   1.384       .  S
C794        F800   1.385       .  S
C801        C802   1.410   1_545  A
C801        C806   1.404       .  A
C801        H808   1.083       .  S
C802        C803   1.418       .  A
C803        C804   1.410   1_565  A
C803        C810   1.520       .  S
C804        C805   1.413       .  A
C804        H809   1.082       .  S
C805        C806   1.419       .  A
C806        C807   1.522       .  S
C807        F811   1.385       .  S
C807        F812   1.384       .  S
C810        F814   1.383       .  S
C810        F815   1.383       .  S
C810        F816   1.385       .  S
C817        C818   1.415       .  A
C817        C822   1.402       .  A
C817        H824   1.082       .  S
C819        C820   1.400       .  A
C819        C826   1.521       .  S
C820        C821   1.411   1_554  A
C820        H825   1.080       .  S
C822        C823   1.518       .  S
C823        F827   1.385       .  S
C823        F829   1.383       .  S
C826        F830   1.382       .  S
C826        F832   1.385       .  S
C833        C834   1.407       .  A
C833        C838   1.404   1_565  A
C833        H840   1.083       .  S
C834        C835   1.416       .  A
C835        C836   1.404   1_565  A
C835        C842   1.514       .  S
C836        C837   1.400       .  A
C836        H841   1.082       .  S
C837        C838   1.411       .  A
C838        C839   1.518       .  S
C839        F843   1.384       .  S
C839        F844   1.382       .  S
C839        F845   1.381       .  S
C842        F846   1.383       .  S
C842        F847   1.377       .  S
C842        F848   1.385       .  S
C849        C850   1.402       .  A
C849        C854   1.415       .  A
C849        H856   1.082       .  S
C850        C851   1.429   1_565  A
C851        C852   1.398       .  A
C851        C858   1.518       .  S
C852        C853   1.397       .  A
C852        H857   1.082       .  S
C853        C854   1.432   1_545  A
C854        C855   1.522       .  S
C855        F859   1.385       .  S
C855        F860   1.383       .  S
C855        F861   1.383   1_565  S
C858        F862   1.385   1_545  S
C858        F863   1.384       .  S
C858        F864   1.385       .  S
C865        C866   1.408       .  A
C865        C870   1.412       .  A
C865        H872   1.083       .  S
C866        C867   1.433       .  A
C867        C868   1.408       .  A
C867        C874   1.525       .  S
C868        C869   1.401       .  A
C868        H873   1.082       .  S
C869        C870   1.421       .  A
C870        C871   1.518       .  S
C871        F875   1.385       .  S
C871        F876   1.383       .  S
C871        F877   1.384       .  S
C874        F878   1.382       .  S
C874        F879   1.383       .  S
C874        F880   1.385       .  S
C881        C882   1.410       .  A
C881       C2006   1.407       .  A
C881        H888   1.083       .  S
C882        C883   1.426       .  A
C883       C2004   1.410       .  A
C883        C890   1.520       .  S
C884       C2003   1.410   1_455  A
C884        C885   1.406       .  A
C884        H889   1.083       .  S
C885        C886   1.418       .  A
C886       C2001   1.403   1_455  A
C886        C887   1.522       .  S
C887        F891   1.385       .  S
C887        F892   1.384       .  S
C887        F893   1.383       .  S
C890        F894   1.384   1_565  S
C890        F895   1.382       .  S
C890        F896   1.385   1_565  S
C897        C898   1.407       .  A
C897        H904   1.083       .  S
C898        C899   1.415       .  A
C899        C906   1.517       .  S
C900        C901   1.404       .  A
C900        H905   1.083       .  S
C901        C902   1.419       .  A
C902        C903   1.518       .  S
C903        F907   1.384   1_556  S
C903        F908   1.383   1_556  S
C903        F909   1.383       .  S
C906        F910   1.383       .  S
C906        F911   1.383       .  S
C906        F912   1.385       .  S
C913        C914   1.411       .  A
C913        C918   1.412       .  A
C913        H920   1.083       .  S
C914        C915   1.419       .  A
C915        C916   1.413       .  A
C915        C922   1.519       .  S
C916        C917   1.410       .  A
C916        H921   1.083       .  S
C917        C918   1.419       .  A
C918        C919   1.520       .  S
C919        F923   1.385       .  S
C919        F924   1.383       .  S
C919        F925   1.383       .  S
C922        F926   1.383       .  S
C922        F927   1.383       .  S
C922        F928   1.385       .  S
C929        C930   1.409       .  A
C929        C934   1.407       .  A
C929        H936   1.082       .  S
C930        C931   1.422       .  A
C931        C932   1.411       .  A
C931        C938   1.519       .  S
C932        C933   1.406       .  A
C932        H937   1.083       .  S
C933        C934   1.421       .  A
C934        C935   1.522       .  S
C935        F939   1.385       .  S
C935        F940   1.384       .  S
C935        F941   1.383       .  S
C938        F942   1.383       .  S
C938        F943   1.384       .  S
C938        F944   1.380       .  S
C945       C2066   1.404       .  A
C945        C950   1.410   1_655  A
C945        H952   1.082       .  S
C946       C2065   1.403       .  A
C946        C947   1.423       .  A
C947        C948   1.409       .  A
C947        C954   1.520       .  S
C948       C2069   1.408       .  A
C948        H953   1.083       .  S
C949       C2068   1.406   1_455  A
C949        C950   1.430       .  A
C950        C951   1.522       .  S
C951        F955   1.385       .  S
C951        F956   1.383       .  S
C951        F957   1.384       .  S
C954        F958   1.383       .  S
C954        F959   1.384       .  S
C954        F960   1.385       .  S
C961        C962   1.415   1_554  A
C961        C966   1.415       .  A
C961        H968   1.082       .  S
C963        C964   1.416       .  A
C963        C970   1.519       .  S
C964        C965   1.415       .  A
C964        H969   1.083       .  S
C966        C967   1.519       .  S
C967        F971   1.384       .  S
C967        F972   1.384       .  S
C967        F973   1.383       .  S
C970        F974   1.383       .  S
C970        F975   1.383       .  S
C970        F976   1.385       .  S
C977        C978   1.402       .  A
C977        C982   1.413       .  A
C977        H984   1.082       .  S
C978        C979   1.428       .  A
C979        C980   1.399       .  A
C979        C986   1.519       .  S
C980        C981   1.396       .  A
C980        H985   1.083       .  S
C981        C982   1.431       .  A
C982        C983   1.522       .  S
C983        F987   1.385       .  S
C983        F988   1.383       .  S
C983        F989   1.383       .  S
C986        F990   1.381       .  S
C986        F991   1.385       .  S
C986        F992   1.386       .  S
C993        C994   1.405       .  A
C993        C998   1.402       .  A
C993       H1000   1.084       .  S
C994        C995   1.421       .  A
C995        C996   1.412       .  A
C996        C997   1.403       .  A
C996       H1001   1.084       .  S
C997        C998   1.415       .  A
C998        C999   1.517       .  S
C999       F1003   1.381       .  S
C999       F1004   1.382       .  S
C999       F1005   1.381       .  S
C1002      F1006   1.383   1_554  S
C1002      F1007   1.384       .  S
C1002      F1008   1.380       .  S
C1009      C1010   1.413       .  A
C1009      C2134   1.401   1_556  A
C1009      H1016   1.080       .  S
C1011      C2132   1.399       .  A
C1011      C1018   1.514       .  S
C1012      C2131   1.400       .  A
C1012      C1013   1.409   1_655  A
C1012      H1017   1.081       .  S
C1014      C2129   1.400   1_454  A
C1014      C1015   1.521       .  S
C1015      F1019   1.385       .  S
C1015      F1020   1.383       .  S
C1018      F1023   1.382       .  S
C1018      F1024   1.385       .  S
C1025      C1026   1.413       .  A
C1025      C1030   1.413       .  A
C1025      H1032   1.083       .  S
C1026      C1027   1.416       .  A
C1027      C1028   1.410       .  A
C1027      C1034   1.520       .  S
C1028      C1029   1.414       .  A
C1028      H1033   1.082       .  S
C1029      C1030   1.419       .  A
C1030      C1031   1.519       .  S
C1031      F1035   1.385       .  S
C1031      F1036   1.383       .  S
C1031      F1037   1.384       .  S
C1034      F1038   1.383       .  S
C1034      F1039   1.383       .  S
C1034      F1040   1.385       .  S
C1041      C1042   1.416       .  A
C1041      C1046   1.410       .  A
C1041      H1048   1.081       .  S
C1042      C1043   1.427       .  A
C1043      C1044   1.412       .  A
C1043      C1050   1.521       .  S
C1044      C1045   1.407       .  A
C1044      H1049   1.083       .  S
C1045      C1046   1.412       .  A
C1046      C1047   1.519       .  S
C1047      F1051   1.384       .  S
C1047      F1052   1.383       .  S
C1047      F1053   1.383       .  S
C1050      F1054   1.381       .  S
C1050      F1055   1.383       .  S
C1050      F1056   1.385       .  S
C1057      C1058   1.412       .  A
C1057      C1062   1.406       .  A
C1057      H1064   1.083       .  S
C1058      C1059   1.417       .  A
C1059      C1060   1.411       .  A
C1059      C1066   1.519       .  S
C1060      C1061   1.413       .  A
C1060      H1065   1.082       .  S
C1061      C1062   1.419       .  A
C1062      C1063   1.522       .  S
C1063      F1067   1.385       .  S
C1063      F1068   1.384       .  S
C1063      F1069   1.383       .  S
C1066      F1070   1.383       .  S
C1066      F1071   1.383       .  S
C1066      F1072   1.385       .  S
C1073      C1074   1.409       .  A
C1073      C1078   1.406       .  A
C1073      H1080   1.083       .  S
C1074      C1075   1.420       .  A
C1075      C1076   1.412       .  A
C1075      C1082   1.520       .  S
C1076      C1077   1.407       .  A
C1076      H1081   1.083       .  S
C1077      C1078   1.412       .  A
C1078      C1079   1.519       .  S
C1079      F1083   1.384       .  S
C1079      F1084   1.382       .  S
C1079      F1085   1.384       .  S
C1082      F1086   1.384       .  S
C1082      F1087   1.383       .  S
C1082      F1088   1.385       .  S
C1089      C1090   1.412       .  A
C1089      C1094   1.412       .  A
C1089      H1096   1.082       .  S
C1090      C2211   1.424       .  A
C1091      C2210   1.424   1_455  A
C1091      C1092   1.410       .  A
C1091      C1098   1.520       .  S
C1092      C1093   1.409       .  A
C1092      H1097   1.082       .  S
C1093      C2214   1.423   1_455  A
C1094      C2213   1.423       .  A
C1094      C1095   1.522       .  S
C1095      F1099   1.385       .  S
C1095      F1100   1.382       .  S
C1095      F1101   1.383       .  S
C1098      F1102   1.380   1_455  S
C1098      F1103   1.383   1_455  S
C1098      F1104   1.385       .  S
C1105      C1106   1.399       .  A
C1105      C2230   1.399       .  A
C1105      H1112   1.084       .  S
C1106      C1107   1.412   1_455  A
C1107      C2228   1.402       .  A
C1107      C1114   1.520       .  S
C1108      C2227   1.407       .  A
C1108      C1109   1.403       .  A
C1108      H1113   1.083       .  S
C1109      C1110   1.420       .  A
C1110      C2225   1.402       .  A
C1110      C1111   1.518       .  S
C1111      F2235   1.383       .  S
C1111      F1116   1.379       .  S
C1111      F1117   1.380       .  S
C1114      F1118   1.380       .  S
C1114      F1119   1.384   1_655  S
C1114      F2240   1.380       .  S
F1115      C2231   1.383       .  S
F1120      C2234   1.380       .  S
Fe1121     O1137   2.045       .  S
Fe1121     O1127   2.124       .  S
Fe1121     O1134   2.135       .  S
Fe1121     O1126   2.040       .  S
Fe1121     O1132   1.920       .  S
Fe1122     O1125   2.009       .  S
Fe1122     O1129   2.097       .  S
Fe1122     O1133   2.012       .  S
Fe1122     O1138   2.111       .  S
Fe1122     O1132   1.925       .  S
Fe1123     O1141   2.130       .  S
Fe1123     O1128   2.034       .  S
Fe1123     O1135   2.018       .  S
Fe1123     O1124   2.115       .  S
Fe1123     O1132   1.931       .  S
O1124      C1131   1.279       .  A
O1125      C1139   1.256       .  A
O1126      C1131   1.266       .  A
O1127      C1130   1.283       .  A
O1128      C1140   1.264       .  A
O1129      C1142   1.270       .  A
C1130      O1135   1.265       .  A
C1130      C1605   1.482       .  S
C1131      C1634   1.490       .  S
O1133      C1136   1.266       .  A
O1134      C1136   1.286       .  A
C1136      C1589   1.496       .  S
O1137      C1142   1.265       .  A
O1138      C1140   1.276       .  A
C1139      O1141   1.281       .  A
C1139      C1666   1.470       .  S
C1140      C1621   1.490       .  S
C1142      C1653   1.503       .  S
Fe1143     O1159   2.053       .  S
Fe1143     O1149   2.146       .  S
Fe1143     O1156   2.163       .  S
Fe1143     O1148   2.062       .  S
Fe1143     O1154   1.924       .  S
Fe1144     O1147   2.021       .  S
Fe1144     O1151   2.098       .  S
Fe1144     O1155   2.028       .  S
Fe1144     O1720   2.124       .  S
Fe1144     O1154   1.925       .  S
Fe1145     O1163   2.119       .  S
Fe1145     O1150   2.027       .  S
Fe1145     O1157   2.000       .  S
Fe1145     O1146   2.093       .  S
Fe1145     O1154   1.935       .  S
O1146      C1153   1.274       .  A
O1147      C1161   1.257       .  A
O1148      C1153   1.269       .  A
O1149      C1152   1.289       .  A
O1150      C1722   1.263       .  A
O1151      C1164   1.271       .  A
C1152      O1157   1.259       .  A
C1152      C1538   1.498       .  S
C1153      C1637   1.483       .  S
O1155      C1158   1.269       .  A
O1156      C1158   1.294       .  A
C1158      C1522   1.510       .  S
O1159      C1164   1.265       .  A
O1160     Fe1704   2.113       .  S
O1160      C1162   1.278   1_556  A
C1161      O1163   1.274       .  A
C1161      C1570   1.487       .  S
C1162      O1710   1.263   1_554  A
C1162      C1554   1.480       .  S
C1164      C1650   1.510       .  S
Fe1165     O1181   2.141       .  S
Fe1165     O1171   2.045       .  S
Fe1165     O1178   2.053       .  S
Fe1165     O1170   2.123       .  S
Fe1165     O1176   1.923       .  S
Fe1166     O1169   2.116       .  S
Fe1166     O1173   2.038       .  S
Fe1166     O1177   2.097       .  S
Fe1166     O1182   2.018       .  S
Fe1166     O1176   1.919       .  S
Fe1167     O1185   2.033       .  S
Fe1167     O1172   2.115       .  S
Fe1167     O1179   2.105       .  S
Fe1167     O1168   2.015       .  S
Fe1167     O1176   1.934       .  S
O1168      C1175   1.261       .  A
O1169      C1183   1.283       .  A
O1170      C1175   1.281       .  A
O1171      C1174   1.269       .  A
O1172      C1184   1.276       .  A
O1173      C1186   1.268       .  A
C1174      O1179   1.278       .  A
C1174      C1493   1.481       .  S
C1175      C1557   1.466       .  S
O1177      C1180   1.275       .  A
O1178      C1180   1.266       .  A
C1180      C1506   1.489       .  S
O1181      C1186   1.287       .  A
O1182      C1184   1.255       .  A
C1183      O1185   1.261       .  A
C1183      C1541   1.497       .  S
C1184      C1669   1.458       .  S
C1186      C1474   1.503       .  S
Fe1187     O1203   2.147       .  S
Fe1187     O1193   2.043       .  S
Fe1187     O1200   2.046       .  S
Fe1187     O1192   2.132       .  S
Fe1187     O1198   1.914       .  S
Fe1188     O1751   2.121   1_554  S
Fe1188     O1195   2.023       .  S
Fe1188     O1199   2.100       .  S
Fe1188     O1204   2.014       .  S
Fe1188     O1198   1.920       .  S
Fe1189     O1207   2.029       .  S
Fe1189     O1194   2.117       .  S
Fe1189     O1201   2.101       .  S
Fe1189     O1190   2.008       .  S
Fe1189     O1198   1.929       .  S
O1190      C1197   1.264       .  A
O1191     Fe1748   2.112       .  S
O1191      C1205   1.276       .  A
O1192      C1197   1.285       .  A
O1193      C1196   1.267       .  A
O1194      C1206   1.276       .  A
O1195      C1208   1.267       .  A
C1196      O1201   1.275       .  A
C1196      C1490   1.485       .  S
C1197      C1618   1.497       .  S
O1199      C1202   1.274       .  A
O1200      C1202   1.260       .  A
C1202      C1509   1.508       .  S
O1203      C1208   1.289       .  A
O1204      C1206   1.256       .  A
C1205      O1767   1.266       .  A
C1205      C1602   1.498       .  S
C1206      C1573   1.479       .  S
O1207      C1765   1.264   1_554  A
C1208      C1458   1.513       .  S
Fe1209     O1225   2.160       .  S
Fe1209     O1215   2.058       .  S
Fe1209     O1222   2.056       .  S
Fe1209     O1214   2.142       .  S
Fe1209     O1220   1.918       .  S
Fe1210     O1773   2.121       .  S
Fe1210     O1217   2.027       .  S
Fe1210     O1221   2.093       .  S
Fe1210     O1226   2.018       .  S
Fe1210     O1220   1.924       .  S
Fe1211     O1229   2.035       .  S
Fe1211     O1216   2.113       .  S
Fe1211     O1223   2.102       .  S
Fe1211     O1212   2.016       .  S
Fe1211     O1220   1.938       .  S
O1212      C1219   1.264       .  A
O1213     Fe1770   2.125       .  S
O1213      C1227   1.283       .  A
O1214      C1219   1.288       .  A
O1215      C1218   1.271       .  A
O1216      C1228   1.273       .  A
O1217      C1230   1.268       .  A
C1218      O1223   1.274       .  A
C1218      C1442   1.504       .  S
C1219      C1410   1.482       .  S
O1221      C1224   1.273       .  A
O1222      C1224   1.261       .  A
C1224      C1429   1.508       .  S
O1225      C1230   1.293       .  A
O1226      C1228   1.254       .  A
C1227      O1789   1.266       .  A
C1227      C1394   1.481       .  S
C1228      C1378   1.481       .  S
O1229      C1787   1.266   1_554  A
C1230      C1525   1.513       .  S
Fe1231     O1247   2.134       .  S
Fe1231     O1237   2.045       .  S
Fe1231     O1244   2.045       .  S
Fe1231     O1236   2.133       .  S
Fe1231     O1242   1.918       .  S
Fe1232     O1235   2.118       .  S
Fe1232     O1239   2.020       .  S
Fe1232     O1243   2.103       .  S
Fe1232     O1248   2.010       .  S
Fe1232     O1242   1.923       .  S
Fe1233     O1251   2.028       .  S
Fe1233     O1238   2.128       .  S
Fe1233     O1245   2.109       .  S
Fe1233     O1234   2.017       .  S
Fe1233     O1242   1.925       .  S
O1234      C1241   1.266       .  A
O1235      C1249   1.279       .  A
O1236      C1241   1.284       .  A
O1237      C1240   1.266       .  A
O1238      C1250   1.280       .  A
O1239      C1252   1.265       .  A
C1240      O1245   1.278       .  A
C1240      C1445   1.486       .  S
C1241      C1362   1.502       .  S
O1243      C1246   1.277       .  A
O1244      C1246   1.262       .  A
C1246      C1426   1.507       .  S
O1247      C1252   1.286       .  A
O1248      C1250   1.252       .  A
C1249      O1251   1.264       .  A
C1249      C1346   1.494       .  S
C1250      C1333   1.488       .  S
C1252      C1586   1.496       .  S
Fe1253     O1269   2.049       .  S
Fe1253     O1259   2.122       .  S
Fe1253     O1266   2.138       .  S
Fe1253     O1258   2.049       .  S
Fe1253     O1264   1.927       .  S
Fe1254     O1257   2.018       .  S
Fe1254     O1261   2.095       .  S
Fe1254     O1265   2.017       .  S
Fe1254     O1830   2.107       .  S
Fe1254     O1264   1.927       .  S
Fe1255     O1273   2.116       .  S
Fe1255     O1260   2.040       .  S
Fe1255     O1267   2.016       .  S
Fe1255     O1256   2.101       .  S
Fe1255     O1264   1.935       .  S
O1256      C1263   1.276       .  A
O1257      C1271   1.259       .  A
O1258      C1263   1.268       .  A
O1259      C1262   1.283       .  A
O1260      C1832   1.266       .  A
O1261      C1274   1.269       .  A
C1262      O1267   1.265       .  A
C1262      C1349   1.491       .  S
C1263      C1317   1.488       .  S
O1265      C1268   1.266       .  A
O1266      C1268   1.288       .  A
C1268      C1461   1.479       .  S
O1269      C1274   1.264       .  A
O1270     Fe1814   2.113   1_554  S
O1270      C1272   1.277       .  A
C1271      O1273   1.276       .  A
C1271      C1381   1.481       .  S
C1272      O1820   1.266   1_554  A
C1272      C1365   1.492       .  S
C1274      C1301   1.504       .  S
Fe1275     O1291   2.041       .  S
Fe1275     O1281   2.129       .  S
Fe1275     O1288   2.139       .  S
Fe1275     O1280   2.054       .  S
Fe1275     O1286   1.934       .  S
Fe1276     O1279   2.025       .  S
Fe1276     O1283   2.107       .  S
Fe1276     O1287   2.037       .  S
Fe1276     O1292   2.115       .  S
Fe1276     O1286   1.931       .  S
Fe1277     O1295   2.102       .  S
Fe1277     O1282   2.039       .  S
Fe1277     O1289   2.024       .  S
Fe1277     O1278   2.101       .  S
Fe1277     O1286   1.933       .  S
O1278      C1285   1.278       .  A
O1279      C1293   1.261       .  A
O1280      C1285   1.270       .  A
O1281      C1284   1.281       .  A
O1282      C1294   1.263       .  A
O1283      C1296   1.275       .  A
C1284      O1289   1.262       .  A
C1284      C1397   1.473       .  S
C1285      C1314   1.482       .  S
O1287      C1290   1.267       .  A
O1288      C1290   1.284       .  A
C1290      C1477   1.502       .  S
O1291      C1296   1.267       .  A
O1292      C1294   1.282       .  A
C1293      O1295   1.277       .  A
C1293      C1330   1.475       .  S
C1294      C1413   1.501       .  S
C1296      C1298   1.503       .  S
C1297      C1298   1.411       .  A
C1297      C1302   1.409       .  A
C1297      H1304   1.081       .  S
C1298      C1299   1.421       .  A
C1299      C1300   1.410       .  A
C1299      C1306   1.522       .  S
C1300      C1301   1.412       .  A
C1300      H1305   1.082       .  S
C1301      C1302   1.423       .  A
C1302      C1303   1.521       .  S
C1303      F1307   1.385       .  S
C1303      F1308   1.381       .  S
C1303      F1309   1.383       .  S
C1306      F1310   1.381       .  S
C1306      F1311   1.383       .  S
C1306      F1312   1.385       .  S
C1313      C1314   1.406       .  A
C1313      H1320   1.082       .  S
C1314      C1315   1.415       .  A
C1315      C1322   1.520       .  S
C1316      C1317   1.409       .  A
C1316      H1321   1.083       .  S
C1317      C1318   1.416       .  A
C1318      C1319   1.518       .  S
C1319      F1323   1.384       .  S
C1319      F1324   1.384       .  S
C1319      F1325   1.382       .  S
C1322      F1326   1.382       .  S
C1322      F1327   1.383       .  S
C1322      F1328   1.385   1_655  S
C1329      C1330   1.400   1_565  A
C1329      C1334   1.404       .  A
C1329      H1336   1.083       .  S
C1330      C1331   1.418       .  A
C1331      C1332   1.403       .  A
C1331      C1338   1.519       .  S
C1332      C1333   1.405   1_545  A
C1332      H1337   1.085       .  S
C1333      C1334   1.429       .  A
C1334      C1335   1.523       .  S
C1335      F1339   1.385       .  S
C1335      F1340   1.382       .  S
C1335      F1341   1.383       .  S
C1338      F1342   1.382       .  S
C1338      F1343   1.381       .  S
C1338      F1344   1.380       .  S
C1345      C1346   1.414   1_545  A
C1345      C1350   1.408       .  A
C1345      H1352   1.082       .  S
C1346      C1347   1.418       .  A
C1347      C1348   1.405       .  A
C1347      C1354   1.521       .  S
C1348      C1349   1.411   1_565  A
C1348      H1353   1.083       .  S
C1349      C1350   1.416       .  A
C1350      C1351   1.520       .  S
C1351      F1355   1.385       .  S
C1351      F1356   1.383       .  S
C1351      F1357   1.383       .  S
C1354      F1358   1.383       .  S
C1354      F1359   1.384       .  S
C1354      F1360   1.385       .  S
C1361      C1362   1.414   1_545  A
C1361      C1366   1.403       .  A
C1361      H1368   1.082       .  S
C1362      C1363   1.422       .  A
C1363      C1364   1.413       .  A
C1363      C1370   1.520       .  S
C1364      C1365   1.412   1_565  A
C1364      H1369   1.082       .  S
C1365      C1366   1.414       .  A
C1366      C1367   1.521       .  S
C1367      F1371   1.385       .  S
C1367      F1372   1.384       .  S
C1367      F1933   1.383       .  S
C1370      F1374   1.382       .  S
C1370      F1375   1.383       .  S
C1370      F1376   1.385       .  S
F1373      C1927   1.383       .  S
C1377      C1378   1.415       .  A
C1377      C1382   1.402   1_554  A
C1377      H1384   1.081       .  S
C1378      C1939   1.412   1_565  A
C1379      C1938   1.416   1_545  A
C1379      C1380   1.402       .  A
C1379      C1386   1.522       .  S
C1380      C1381   1.411       .  A
C1380      H1385   1.081       .  S
C1381      C1942   1.411   1_545  A
C1382      C1941   1.412   1_565  A
C1382      C1383   1.522       .  S
C1383      F1387   1.385       .  S
C1383      F1948   1.384       .  S
C1383      F1389   1.383       .  S
C1386      F1390   1.382       .  S
C1386      F1951   1.379       .  S
C1386      F1392   1.385       .  S
F1388      C1943   1.384       .  S
F1391      C1946   1.381       .  S
C1393      C1394   1.407   1_545  A
C1393      C1398   1.407       .  A
C1393      H1400   1.083       .  S
C1394      C1395   1.416       .  A
C1395      C1396   1.410   1_565  A
C1395      C1402   1.518       .  S
C1396      C1397   1.405       .  A
C1396      H1401   1.082       .  S
C1397      C1398   1.411       .  A
C1398      C1399   1.517       .  S
C1399      F1403   1.383       .  S
C1399      F1404   1.382       .  S
C1399      F1405   1.383       .  S
C1402      F1406   1.383       .  S
C1402      F1407   1.381       .  S
C1402      F1408   1.384       .  S
C1409      C1410   1.401       .  A
C1409      C1414   1.414   1_565  A
C1409      H1416   1.083       .  S
C1410      C1411   1.418       .  A
C1411      C1412   1.404   1_565  A
C1411      C1418   1.521       .  S
C1412      C1413   1.407       .  A
C1412      H1417   1.082       .  S
C1413      C1414   1.430       .  A
C1414      C1415   1.521       .  S
C1415      F1419   1.385   1_545  S
C1415      F1420   1.383   1_545  S
C1415      F1421   1.383       .  S
C1418      F1422   1.383       .  S
C1418      F1423   1.380   1_565  S
C1418      F1424   1.385   1_565  S
C1425      C1426   1.407       .  A
C1425      C1430   1.413       .  A
C1425      H1432   1.081       .  S
C1426      C1427   1.429       .  A
C1427      C1428   1.410       .  A
C1427      C1434   1.524       .  S
C1428      C1429   1.407       .  A
C1428      H1433   1.082       .  S
C1429      C1430   1.429       .  A
C1430      C1431   1.522       .  S
C1431      F1435   1.385       .  S
C1431      F1436   1.383       .  S
C1431      F1437   1.383       .  S
C1434      F1438   1.384       .  S
C1434      F1439   1.383       .  S
C1434      F1440   1.385       .  S
C1441      C1442   1.409       .  A
C1441      H1448   1.082       .  S
C1442      C1443   1.425       .  A
C1443      C1450   1.519       .  S
C1444      C1445   1.403       .  A
C1444      H1449   1.083       .  S
C1445      C1446   1.417       .  A
C1446      C1447   1.520       .  S
C1447      F1451   1.385       .  S
C1447      F1452   1.384       .  S
C1447      F1453   1.382       .  S
C1450      F1454   1.383   1_565  S
C1450      F1455   1.381       .  S
C1450      F1456   1.385   1_665  S
C1457      C1458   1.419   1_556  A
C1457      C2022   1.412       .  A
C1457      H1464   1.081       .  S
C1458      C1459   1.419       .  A
C1459      C2020   1.413       .  A
C1459      C1466   1.522       .  S
C1460      C2019   1.408       .  A
C1460      C1461   1.407       .  A
C1460      H1465   1.083       .  S
C1461      C1462   1.415       .  A
C1462      C2017   1.409       .  A
C1462      C1463   1.517       .  S
C1463      F1467   1.385       .  S
C1463      F1468   1.382       .  S
C1463      F1469   1.383       .  S
C1466      F1470   1.383       .  S
C1466      F1471   1.384       .  S
C1466      F1472   1.385       .  S
C1473      C1474   1.411       .  A
C1473      C1478   1.415       .  A
C1473      H1480   1.083       .  S
C1474      C1475   1.420       .  A
C1475      C1476   1.413       .  A
C1475      C1482   1.518       .  S
C1476      C1477   1.410       .  A
C1476      H1481   1.083       .  S
C1477      C1478   1.421       .  A
C1478      C1479   1.519       .  S
C1479      F1483   1.385       .  S
C1479      F1484   1.382       .  S
C1479      F1485   1.383       .  S
C1482      F1486   1.382       .  S
C1482      F1487   1.383       .  S
C1482      F1488   1.384       .  S
C1489      C1490   1.407       .  A
C1489      C1494   1.404       .  A
C1489      H1496   1.083       .  S
C1490      C1491   1.417       .  A
C1491      C1492   1.411       .  A
C1491      C1498   1.519       .  S
C1492      C1493   1.407       .  A
C1492      H1497   1.082       .  S
C1493      C1494   1.416       .  A
C1494      C1495   1.521       .  S
C1495      F1499   1.385       .  S
C1495      F1500   1.384       .  S
C1495      F1501   1.383       .  S
C1498      F1502   1.382       .  S
C1498      F1503   1.384       .  S
C1498      F1504   1.384       .  S
C1505      C1510   1.411       .  A
C1505      H1512   1.082       .  S
C1506      C1507   1.418       .  A
C1507      C1508   1.411       .  A
C1507      C1514   1.516       .  S
C1508      H1513   1.084       .  S
C1509      C1510   1.431       .  A
C1510      C1511   1.523       .  S
C1511      F1515   1.385       .  S
C1511      F1516   1.383       .  S
C1511      F1517   1.384       .  S
C1514      F1518   1.382       .  S
C1514      F1519   1.382       .  S
C1514      F1520   1.384       .  S
C1521      C1522   1.414       .  A
C1521      C1526   1.415       .  A
C1521      H1528   1.082       .  S
C1522      C2083   1.419       .  A
C1523      C2082   1.419       .  A
C1523      C1524   1.418       .  A
C1523      C1530   1.519       .  S
C1524      C1525   1.418   1_556  A
C1524      H1529   1.082       .  S
C1525      C2086   1.418       .  A
C1526      C2085   1.420       .  A
C1526      C1527   1.520       .  S
C1527      F1531   1.385       .  S
C1527      F1532   1.383       .  S
C1527      F1533   1.383       .  S
C1530      F1534   1.383       .  S
C1530      F1535   1.383       .  S
C1530      F1536   1.385       .  S
C1537      C1538   1.402       .  A
C1537      C1542   1.414       .  A
C1537      H1544   1.082       .  S
C1538      C1539   1.432       .  A
C1539      C1540   1.400       .  A
C1539      C1546   1.521       .  S
C1540      C1541   1.397       .  A
C1540      H1545   1.082       .  S
C1541      C1542   1.431       .  A
C1542      C1543   1.521       .  S
C1543      F1547   1.385       .  S
C1543      F1548   1.383       .  S
C1543      F1549   1.383       .  S
C1546      F1550   1.381       .  S
C1546      F1551   1.385       .  S
C1546      F1552   1.385       .  S
C1553      C1554   1.408       .  A
C1553      C1558   1.405       .  A
C1553      H1560   1.083       .  S
C1554      C1555   1.417       .  A
C1555      C1556   1.407       .  A
C1555      C2122   1.518       .  S
C1556      C1557   1.403       .  A
C1556      H1561   1.082       .  S
C1557      C1558   1.408       .  A
C1558      C1559   1.517       .  S
C1559      F1563   1.381       .  S
C1559      F1564   1.383       .  S
C1559      F1565   1.380       .  S
C1562      C2115   1.518       .  S
C1562      F1566   1.383       .  S
C1562      F1567   1.383       .  S
C1562      F1568   1.383       .  S
C1569      C1570   1.414       .  A
C1569      H1576   1.080       .  S
C1570      C2131   1.416       .  A
C1571      C2130   1.417       .  A
C1571      C1578   1.520       .  S
C1572      C1573   1.412       .  A
C1572      H1577   1.082       .  S
C1573      C2134   1.410       .  A
C1574      C2133   1.411       .  A
C1574      C1575   1.519       .  S
C1575      F1579   1.385       .  S
C1575      F1580   1.383       .  S
C1575      F2141   1.383       .  S
C1578      F2142   1.376       .  S
C1578      F1583   1.381       .  S
C1578      F1584   1.385       .  S
F1581      C2135   1.384       .  S
F1582      C2138   1.376       .  S
C1585      C1586   1.414       .  A
C1585      C1590   1.411       .  A
C1585      H1592   1.083       .  S
C1586      C1587   1.416       .  A
C1587      C1588   1.407       .  A
C1587      C1594   1.520       .  S
C1588      C1589   1.413       .  A
C1588      H1593   1.082       .  S
C1589      C1590   1.417       .  A
C1590      C1591   1.520       .  S
C1591      F1595   1.385       .  S
C1591      F1596   1.383       .  S
C1591      F1597   1.383       .  S
C1594      F1598   1.383       .  S
C1594      F1599   1.383       .  S
C1594      F1600   1.385       .  S
C1601      C1602   1.414       .  A
C1601      C1606   1.407       .  A
C1601      H1608   1.082       .  S
C1602      C1603   1.425       .  A
C1603      C1604   1.406       .  A
C1603      C1610   1.522       .  S
C1604      C1605   1.405       .  A
C1604      H1609   1.083       .  S
C1605      C1606   1.413       .  A
C1606      C1607   1.519       .  S
C1607      F1611   1.385       .  S
C1607      F1612   1.383       .  S
C1607      F1613   1.382       .  S
C1610      F1614   1.382       .  S
C1610      F1615   1.384       .  S
C1610      F1616   1.385       .  S
C1617      C1618   1.415       .  A
C1617      C1622   1.403       .  A
C1617      H1624   1.082       .  S
C1618      C1619   1.418       .  A
C1619      C1620   1.410       .  A
C1619      C1626   1.520       .  S
C1620      C1621   1.412       .  A
C1620      H1625   1.082       .  S
C1621      C1622   1.415       .  A
C1622      C1623   1.522       .  S
C1623      F1627   1.385       .  S
C1623      F1628   1.384       .  S
C1623      F1629   1.382       .  S
C1626      F1630   1.383       .  S
C1626      F1631   1.383       .  S
C1626      F1632   1.385       .  S
C1633      C1634   1.410       .  A
C1633      C1638   1.407       .  A
C1633      H1640   1.083       .  S
C1634      C1635   1.416       .  A
C1635      C1636   1.412       .  A
C1635      C1642   1.518       .  S
C1636      C1637   1.407       .  A
C1636      H1641   1.084       .  S
C1637      C1638   1.413       .  A
C1638      C1639   1.518       .  S
C1639      F1643   1.385       .  S
C1639      F1644   1.383       .  S
C1639      F1645   1.383       .  S
C1642      F1646   1.384       .  S
C1642      F1647   1.382       .  S
C1642      F1648   1.385       .  S
C1649      C1650   1.413       .  A
C1649      C1654   1.413       .  A
C1649      H1656   1.081       .  S
C1651      C1652   1.409       .  A
C1651      C1658   1.521       .  S
C1652      C1653   1.411       .  A
C1652      H1657   1.082       .  S
C1654      C1655   1.521       .  S
C1655      F1659   1.385       .  S
C1655      F1660   1.382       .  S
C1655      F1661   1.383       .  S
C1658      F1662   1.379       .  S
C1658      F1663   1.383       .  S
C1658      F1664   1.385       .  S
C1665      C1666   1.401       .  A
C1665      H1672   1.084       .  S
C1666      C1667   1.419       .  A
C1667      C1674   1.522       .  S
C1668      C1669   1.402       .  A
C1668      H1673   1.084       .  S
C1669      C1670   1.413       .  A
C1670      C1671   1.516       .  S
C1671      F1676   1.383       .  S
C1671      F1677   1.381       .  S
C1674      F1678   1.379       .  S
C1674      F1679   1.383       .  S
Fe1681     O1697   2.046       .  S
Fe1681     O1687   2.125       .  S
Fe1681     O1694   2.134       .  S
Fe1681     O1686   2.050       .  S
Fe1681     O1692   1.921       .  S
Fe1682     O1685   2.020       .  S
Fe1682     O1689   2.090       .  S
Fe1682     O1693   2.022       .  S
Fe1682     O1698   2.101       .  S
Fe1682     O1692   1.929       .  S
Fe1683     O1701   2.118       .  S
Fe1683     O1688   2.034       .  S
Fe1683     O1695   2.015       .  S
Fe1683     O1684   2.106       .  S
Fe1683     O1692   1.932       .  S
O1684      C1691   1.276       .  A
O1685      C1699   1.256       .  A
O1686      C1691   1.269       .  A
O1687      C1690   1.283       .  A
O1688      C1700   1.266       .  A
O1689      C1702   1.268       .  A
C1690      O1695   1.265       .  A
C1690      C2165   1.483       .  S
C1691      C2194   1.491       .  S
O1693      C1696   1.267       .  A
O1694      C1696   1.287       .  A
C1696      C2149   1.496       .  S
O1697      C1702   1.265       .  A
O1698      C1700   1.275       .  A
C1699      O1701   1.278       .  A
C1699      C2226   1.471       .  S
C1700      C2181   1.490       .  S
C1702      C2213   1.502       .  S
Fe1703     O1719   2.060       .  S
Fe1703     O1709   2.146       .  S
Fe1703     O1716   2.164       .  S
Fe1703     O1708   2.064       .  S
Fe1703     O1714   1.926       .  S
Fe1704     O1707   2.023       .  S
Fe1704     O1711   2.088       .  S
Fe1704     O1715   2.026       .  S
Fe1704     O1714   1.928       .  S
Fe1705     O1723   2.120       .  S
Fe1705     O1710   2.033       .  S
Fe1705     O1717   2.002       .  S
Fe1705     O1706   2.088       .  S
Fe1705     O1714   1.941       .  S
O1706      C1713   1.272       .  A
O1707      C1721   1.259       .  A
O1708      C1713   1.269       .  A
O1709      C1712   1.290       .  A
O1711      C1724   1.267       .  A
C1712      O1717   1.260       .  A
C1712      C2098   1.498       .  S
C1713      C2197   1.483       .  S
O1715      C1718   1.269       .  A
O1716      C1718   1.294       .  A
C1718      C2082   1.514       .  S
O1719      C1724   1.265       .  A
O1720      C1722   1.283       .  A
C1721      O1723   1.275       .  A
C1721      C2130   1.489       .  S
C1722      C2114   1.489       .  S
C1724      C2210   1.508       .  S
Fe1725     O1741   2.146       .  S
Fe1725     O1731   2.049       .  S
Fe1725     O1738   2.039       .  S
Fe1725     O1730   2.136       .  S
Fe1725     O1736   1.918       .  S
Fe1726     O1729   2.128       .  S
Fe1726     O1733   2.031       .  S
Fe1726     O1737   2.106       .  S
Fe1726     O1742   2.013       .  S
Fe1726     O1736   1.920       .  S
Fe1727     O1745   2.030       .  S
Fe1727     O1732   2.114       .  S
Fe1727     O1739   2.111       .  S
Fe1727     O1728   2.016       .  S
Fe1727     O1736   1.932       .  S
O1728      C1735   1.262       .  A
O1729      C1743   1.285       .  A
O1730      C1735   1.285       .  A
O1731      C1734   1.268       .  A
O1732      C1744   1.276       .  A
O1733      C1746   1.268       .  A
C1734      O1739   1.278       .  A
C1734      C2053   1.483       .  S
C1735      C2117   1.471       .  S
O1737      C1740   1.277       .  A
O1738      C1740   1.261       .  A
C1740      C2066   1.500       .  S
O1741      C1746   1.288       .  A
O1742      C1744   1.253       .  A
C1743      O1745   1.262       .  A
C1743      C2101   1.496       .  S
C1744      C2229   1.464       .  S
C1746      C2034   1.501       .  S
Fe1747     O1763   2.134       .  S
Fe1747     O1753   2.050       .  S
Fe1747     O1760   2.048       .  S
Fe1747     O1752   2.120       .  S
Fe1747     O1758   1.925       .  S
Fe1748     O1755   2.021       .  S
Fe1748     O1759   2.093       .  S
Fe1748     O1764   2.019       .  S
Fe1748     O1758   1.928       .  S
Fe1749     O1767   2.034       .  S
Fe1749     O1754   2.119       .  S
Fe1749     O1761   2.097       .  S
Fe1749     O1750   2.009       .  S
Fe1749     O1758   1.937       .  S
O1750      C1757   1.266       .  A
O1751      C1765   1.278       .  A
O1752      C1757   1.284       .  A
O1753      C1756   1.267       .  A
O1754      C1766   1.276       .  A
O1755      C1768   1.266       .  A
C1756      O1761   1.274       .  A
C1756      C2050   1.487       .  S
C1757      C2178   1.486       .  S
O1759      C1762   1.272       .  A
O1760      C1762   1.259       .  A
C1762      C2069   1.506       .  S
O1763      C1768   1.288       .  A
O1764      C1766   1.258       .  A
C1765      C2162   1.500       .  S
C1766      C2133   1.480       .  S
C1768      C2018   1.477       .  S
Fe1769     O1785   2.149       .  S
Fe1769     O1775   2.049       .  S
Fe1769     O1782   2.047       .  S
Fe1769     O1774   2.134       .  S
Fe1769     O1780   1.921       .  S
Fe1770     O1777   2.041       .  S
Fe1770     O1781   2.101       .  S
Fe1770     O1786   2.024       .  S
Fe1770     O1780   1.921       .  S
Fe1771     O1789   2.035       .  S
Fe1771     O1776   2.109       .  S
Fe1771     O1783   2.097       .  S
Fe1771     O1772   2.015       .  S
Fe1771     O1780   1.935       .  S
O1772      C1779   1.263       .  A
O1773      C1787   1.282   1_554  A
O1774      C1779   1.285       .  A
O1775      C1778   1.270       .  A
O1776      C1788   1.272       .  A
O1777      C1790   1.269       .  A
C1778      O1783   1.273       .  A
C1778      C2002   1.494       .  S
C1779      C1970   1.480       .  S
O1781      C1784   1.277       .  A
O1782      C1784   1.261       .  A
C1784      C1989   1.506       .  S
O1785      C1790   1.289       .  A
O1786      C1788   1.257       .  A
C1787      C1954   1.481       .  S
C1788      C1938   1.485       .  S
C1790      C2085   1.510       .  S
Fe1791     O1807   2.131       .  S
Fe1791     O1797   2.043       .  S
Fe1791     O1804   2.048       .  S
Fe1791     O1796   2.121       .  S
Fe1791     O1802   1.923       .  S
Fe1792     O1795   2.121       .  S
Fe1792     O1799   2.021       .  S
Fe1792     O1803   2.104       .  S
Fe1792     O1808   2.008       .  S
Fe1792     O1802   1.929       .  S
Fe1793     O1811   2.033       .  S
Fe1793     O1798   2.121       .  S
Fe1793     O1805   2.100       .  S
Fe1793     O1794   2.027       .  S
Fe1793     O1802   1.929       .  S
O1794      C1801   1.268       .  A
O1795      C1809   1.277       .  A
O1796      C1801   1.281       .  A
O1797      C1800   1.265       .  A
O1798      C1810   1.280       .  A
O1799      C1812   1.267       .  A
C1800      O1805   1.277       .  A
C1800      C2005   1.485       .  S
C1801      C1922   1.499       .  S
O1803      C1806   1.276       .  A
O1804      C1806   1.262       .  A
C1806      C1986   1.507       .  S
O1807      C1812   1.285       .  A
O1808      C1810   1.254       .  A
C1809      O1811   1.264       .  A
C1809      C1906   1.502       .  S
C1810      C1893   1.483       .  S
C1812      C2146   1.496       .  S
Fe1813     O1829   2.058       .  S
Fe1813     O1819   2.134       .  S
Fe1813     O1826   2.152       .  S
Fe1813     O1818   2.052       .  S
Fe1813     O1824   1.921       .  S
Fe1814     O1817   2.017       .  S
Fe1814     O1821   2.096       .  S
Fe1814     O1825   2.018       .  S
Fe1814     O1824   1.919       .  S
Fe1815     O1833   2.109       .  S
Fe1815     O1820   2.037       .  S
Fe1815     O1827   2.018       .  S
Fe1815     O1816   2.090       .  S
Fe1815     O1824   1.937       .  S
O1816      C1823   1.273       .  A
O1817      C1831   1.257       .  A
O1818      C1823   1.269       .  A
O1819      C1822   1.286       .  A
O1821      C1834   1.270       .  A
C1822      O1827   1.265       .  A
C1822      C1909   1.493       .  S
C1823      C1877   1.481       .  S
O1825      C1828   1.267       .  A
O1826      C1828   1.291       .  A
C1828      C2021   1.512       .  S
O1829      C1834   1.265       .  A
O1830      C1832   1.275       .  A
C1831      O1833   1.274       .  A
C1831      C1941   1.480       .  S
C1832      C1925   1.497       .  S
C1834      C1861   1.506       .  S
Fe1835     O1851   2.046       .  S
Fe1835     O1841   2.128       .  S
Fe1835     O1848   2.133       .  S
Fe1835     O1840   2.052       .  S
Fe1835     O1846   1.930       .  S
Fe1836     O1839   2.023       .  S
Fe1836     O1843   2.105       .  S
Fe1836     O1847   2.039       .  S
Fe1836     O1852   2.111       .  S
Fe1836     O1846   1.929       .  S
Fe1837     O1855   2.099       .  S
Fe1837     O1842   2.033       .  S
Fe1837     O1849   2.014       .  S
Fe1837     O1838   2.099       .  S
Fe1837     O1846   1.937       .  S
O1838      C1845   1.276       .  A
O1839      C1853   1.257       .  A
O1840      C1845   1.268       .  A
O1841      C1844   1.282       .  A
O1842      C1854   1.263       .  A
O1843      C1856   1.274       .  A
C1844      O1849   1.260       .  A
C1844      C1957   1.468       .  S
C1845      C1874   1.481       .  S
O1847      C1850   1.267       .  A
O1848      C1850   1.285       .  A
C1850      C2037   1.501       .  S
O1851      C1856   1.267       .  A
O1852      C1854   1.282       .  A
C1853      O1855   1.275       .  A
C1853      C1890   1.473       .  S
C1854      C1973   1.497       .  S
C1856      C1858   1.506       .  S
C1857      C1858   1.410       .  A
C1857      C1862   1.408       .  A
C1857      H1864   1.081       .  S
C1858      C1859   1.422       .  A
C1859      C1860   1.413       .  A
C1859      C1866   1.520       .  S
C1860      C1861   1.412       .  A
C1860      H1865   1.082       .  S
C1861      C1862   1.423       .  A
C1862      C1863   1.520       .  S
C1863      F1867   1.385       .  S
C1863      F1868   1.379       .  S
C1863      F1869   1.383       .  S
C1866      F1870   1.381       .  S
C1866      F1871   1.384       .  S
C1866      F1872   1.385       .  S
C1873      C1874   1.405       .  A
C1873      H1880   1.082       .  S
C1874      C1875   1.415       .  A
C1875      C1882   1.520       .  S
C1876      C1877   1.407       .  A
C1876      H1881   1.083       .  S
C1877      C1878   1.417       .  A
C1878      C1879   1.519       .  S
C1879      F1883   1.385       .  S
C1879      F1884   1.383       .  S
C1879      F1885   1.382       .  S
C1882      F1886   1.382       .  S
C1882      F1887   1.383       .  S
C1882      F1888   1.385   1_655  S
C1889      C1890   1.400   1_565  A
C1889      C1894   1.402       .  A
C1889      H1896   1.083       .  S
C1890      C1891   1.418       .  A
C1891      C1892   1.405       .  A
C1891      C1898   1.525       .  S
C1892      C1893   1.406   1_545  A
C1892      H1897   1.083       .  S
C1893      C1894   1.427       .  A
C1894      C1895   1.523       .  S
C1895      F1899   1.384       .  S
C1895      F1900   1.383       .  S
C1895      F1901   1.382       .  S
C1898      F1902   1.377       .  S
C1898      F1903   1.383       .  S
C1898      F1904   1.382       .  S
C1905      C1906   1.415       .  A
C1905      C1910   1.409   1_565  A
C1905      H1912   1.081       .  S
C1906      C1907   1.422       .  A
C1907      C1908   1.408       .  A
C1907      C1914   1.522       .  S
C1908      C1909   1.411   1_565  A
C1908      H1913   1.083       .  S
C1909      C1910   1.414       .  A
C1910      C1911   1.519       .  S
C1911      F1915   1.385       .  S
C1911      F1916   1.383       .  S
C1911      F1917   1.382       .  S
C1914      F1918   1.382       .  S
C1914      F1919   1.383       .  S
C1914      F1920   1.385       .  S
C1921      C1922   1.410   1_545  A
C1921      C1926   1.405       .  A
C1921      H1928   1.082       .  S
C1922      C1923   1.420       .  A
C1923      C1924   1.412   1_565  A
C1923      C1930   1.521       .  S
C1924      C1925   1.413       .  A
C1924      H1929   1.082       .  S
C1925      C1926   1.420       .  A
C1926      C1927   1.522       .  S
C1927      F1931   1.385       .  S
C1927      F1932   1.384       .  S
C1930      F1934   1.383       .  S
C1930      F1935   1.383       .  S
C1930      F1936   1.385       .  S
C1937      C1938   1.414       .  A
C1937      C1942   1.402       .  A
C1937      H1944   1.082       .  S
C1939      C1940   1.399   1_554  A
C1939      C1946   1.522       .  S
C1940      C1941   1.412       .  A
C1940      H1945   1.077       .  S
C1942      C1943   1.520       .  S
C1943      F1947   1.385       .  S
C1943      F1949   1.383       .  S
C1946      F1950   1.382       .  S
C1946      F1952   1.385       .  S
C1953      C1954   1.408       .  A
C1953      C1958   1.406   1_565  A
C1953      H1960   1.083       .  S
C1954      C1955   1.417       .  A
C1955      C1956   1.408   1_565  A
C1955      C1962   1.518       .  S
C1956      C1957   1.403       .  A
C1956      H1961   1.083       .  S
C1957      C1958   1.411       .  A
C1958      C1959   1.518       .  S
C1959      F1963   1.383       .  S
C1959      F1964   1.383       .  S
C1959      F1965   1.383       .  S
C1962      F1966   1.384       .  S
C1962      F1967   1.380       .  S
C1962      F1968   1.384       .  S
C1969      C1970   1.401       .  A
C1969      C1974   1.413   1_565  A
C1969      H1976   1.083       .  S
C1970      C1971   1.417       .  A
C1971      C1972   1.401   1_565  A
C1971      C1978   1.520       .  S
C1972      C1973   1.406       .  A
C1972      H1977   1.082       .  S
C1973      C1974   1.430       .  A
C1974      C1975   1.521       .  S
C1975      F1979   1.385   1_545  S
C1975      F1980   1.383   1_545  S
C1975      F1981   1.384       .  S
C1978      F1982   1.384       .  S
C1978      F1983   1.377   1_565  S
C1978      F1984   1.384   1_565  S
C1985      C1986   1.406       .  A
C1985      C1990   1.412       .  A
C1985      H1992   1.081       .  S
C1986      C1987   1.428       .  A
C1987      C1988   1.410       .  A
C1987      C1994   1.522       .  S
C1988      C1989   1.406       .  A
C1988      H1993   1.082       .  S
C1989      C1990   1.430       .  A
C1990      C1991   1.523       .  S
C1991      F1995   1.385       .  S
C1991      F1996   1.383       .  S
C1991      F1997   1.383       .  S
C1994      F1998   1.384       .  S
C1994      F1999   1.383       .  S
C1994      F2000   1.385       .  S
C2001      C2002   1.408       .  A
C2001      H2008   1.082       .  S
C2002      C2003   1.424       .  A
C2003      C2010   1.520       .  S
C2004      C2005   1.403       .  A
C2004      H2009   1.083       .  S
C2005      C2006   1.417       .  A
C2006      C2007   1.522       .  S
C2007      F2011   1.385       .  S
C2007      F2012   1.384       .  S
C2007      F2013   1.382       .  S
C2010      F2014   1.383   1_565  S
C2010      F2015   1.382       .  S
C2010      F2016   1.385   1_665  S
C2017      C2018   1.406       .  A
C2017      H2024   1.083       .  S
C2018      C2019   1.413       .  A
C2019      C2026   1.518       .  S
C2020      C2021   1.420   1_554  A
C2020      H2025   1.081       .  S
C2021      C2022   1.417       .  A
C2022      C2023   1.520       .  S
C2023      F2027   1.385       .  S
C2023      F2028   1.383       .  S
C2023      F2029   1.383       .  S
C2026      F2030   1.383       .  S
C2026      F2031   1.382       .  S
C2026      F2032   1.385       .  S
C2033      C2034   1.411       .  A
C2033      C2038   1.413       .  A
C2033      H2040   1.083       .  S
C2034      C2035   1.420       .  A
C2035      C2036   1.414       .  A
C2035      C2042   1.520       .  S
C2036      C2037   1.411       .  A
C2036      H2041   1.083       .  S
C2037      C2038   1.419       .  A
C2038      C2039   1.519       .  S
C2039      F2043   1.385       .  S
C2039      F2044   1.383       .  S
C2039      F2045   1.383       .  S
C2042      F2046   1.383       .  S
C2042      F2047   1.382       .  S
C2042      F2048   1.385       .  S
C2049      C2050   1.408       .  A
C2049      C2054   1.408       .  A
C2049      H2056   1.083       .  S
C2050      C2051   1.415       .  A
C2051      C2052   1.411       .  A
C2051      C2058   1.517       .  S
C2052      C2053   1.406       .  A
C2052      H2057   1.081       .  S
C2053      C2054   1.415       .  A
C2054      C2055   1.519       .  S
C2055      F2059   1.385       .  S
C2055      F2060   1.384       .  S
C2055      F2061   1.382       .  S
C2058      F2062   1.382       .  S
C2058      F2063   1.384       .  S
C2058      F2064   1.382       .  S
C2065      C2070   1.410       .  A
C2065      H2072   1.082       .  S
C2066      C2067   1.426       .  A
C2067      C2068   1.409       .  A
C2067      C2074   1.521       .  S
C2068      H2073   1.082       .  S
C2069      C2070   1.430       .  A
C2070      C2071   1.522       .  S
C2071      F2075   1.385       .  S
C2071      F2076   1.383       .  S
C2071      F2077   1.384       .  S
C2074      F2078   1.383       .  S
C2074      F2079   1.384       .  S
C2074      F2080   1.385       .  S
C2081      C2082   1.417   1_554  A
C2081      C2086   1.415       .  A
C2081      H2088   1.082       .  S
C2083      C2084   1.418       .  A
C2083      C2090   1.518       .  S
C2084      C2085   1.414       .  A
C2084      H2089   1.083       .  S
C2086      C2087   1.519       .  S
C2087      F2091   1.385       .  S
C2087      F2092   1.384       .  S
C2087      F2093   1.383       .  S
C2090      F2094   1.382       .  S
C2090      F2095   1.384       .  S
C2090      F2096   1.385       .  S
C2097      C2098   1.401       .  A
C2097      C2102   1.414       .  A
C2097      H2104   1.082       .  S
C2098      C2099   1.431       .  A
C2099      C2100   1.402       .  A
C2099      C2106   1.520       .  S
C2100      C2101   1.396       .  A
C2100      H2105   1.083       .  S
C2101      C2102   1.432       .  A
C2102      C2103   1.521       .  S
C2103      F2107   1.385       .  S
C2103      F2108   1.383       .  S
C2103      F2109   1.383       .  S
C2106      F2110   1.381       .  S
C2106      F2111   1.385       .  S
C2106      F2112   1.385       .  S
C2113      C2114   1.406       .  A
C2113      C2118   1.403       .  A
C2113      H2120   1.085       .  S
C2114      C2115   1.422       .  A
C2115      C2116   1.411       .  A
C2116      C2117   1.402       .  A
C2116      H2121   1.082       .  S
C2117      C2118   1.416       .  A
C2118      C2119   1.517       .  S
C2119      F2123   1.380       .  S
C2119      F2124   1.382       .  S
C2119      F2125   1.381       .  S
C2122      F2126   1.383       .  S
C2122      F2127   1.384       .  S
C2122      F2128   1.384       .  S
C2129      C2130   1.414       .  A
C2129      H2136   1.078       .  S
C2131      C2138   1.518       .  S
C2132      C2133   1.408       .  A
C2132      H2137   1.082       .  S
C2134      C2135   1.519       .  S
C2135      F2139   1.385       .  S
C2135      F2140   1.383       .  S
C2138      F2143   1.382       .  S
C2138      F2144   1.385       .  S
C2145      C2146   1.411       .  A
C2145      C2150   1.408       .  A
C2145      H2152   1.083       .  S
C2146      C2147   1.417       .  A
C2147      C2148   1.411       .  A
C2147      C2154   1.520       .  S
C2148      C2149   1.414       .  A
C2148      H2153   1.082       .  S
C2149      C2150   1.417       .  A
C2150      C2151   1.520       .  S
C2151      F2155   1.385       .  S
C2151      F2156   1.383       .  S
C2151      F2157   1.384       .  S
C2154      F2158   1.383       .  S
C2154      F2159   1.384       .  S
C2154      F2160   1.385       .  S
C2161      C2162   1.416       .  A
C2161      C2166   1.409       .  A
C2161      H2168   1.082       .  S
C2162      C2163   1.424       .  A
C2163      C2164   1.405       .  A
C2163      C2170   1.522       .  S
C2164      C2165   1.405       .  A
C2164      H2169   1.083       .  S
C2165      C2166   1.413       .  A
C2166      C2167   1.519       .  S
C2167      F2171   1.385       .  S
C2167      F2172   1.383       .  S
C2167      F2173   1.382       .  S
C2170      F2174   1.381       .  S
C2170      F2175   1.383       .  S
C2170      F2176   1.385       .  S
C2177      C2178   1.409       .  A
C2177      C2182   1.402       .  A
C2177      H2184   1.083       .  S
C2178      C2179   1.414       .  A
C2179      C2180   1.407       .  A
C2179      C2186   1.519       .  S
C2180      C2181   1.413       .  A
C2180      H2185   1.082       .  S
C2181      C2182   1.420       .  A
C2182      C2183   1.523       .  S
C2183      F2187   1.385       .  S
C2183      F2188   1.384       .  S
C2183      F2189   1.383       .  S
C2186      F2190   1.382       .  S
C2186      F2191   1.383       .  S
C2186      F2192   1.384       .  S
C2193      C2194   1.410       .  A
C2193      C2198   1.408       .  A
C2193      H2200   1.083       .  S
C2194      C2195   1.419       .  A
C2195      C2196   1.412       .  A
C2195      C2202   1.518       .  S
C2196      C2197   1.406       .  A
C2196      H2201   1.083       .  S
C2197      C2198   1.413       .  A
C2198      C2199   1.518       .  S
C2199      F2203   1.385       .  S
C2199      F2204   1.382       .  S
C2199      F2205   1.384       .  S
C2202      F2206   1.383       .  S
C2202      F2207   1.382       .  S
C2202      F2208   1.385       .  S
C2209      C2210   1.412       .  A
C2209      C2214   1.413       .  A
C2209      H2216   1.082       .  S
C2211      C2212   1.407       .  A
C2211      C2218   1.521       .  S
C2212      C2213   1.409       .  A
C2212      H2217   1.081       .  S
C2214      C2215   1.521       .  S
C2215      F2219   1.385       .  S
C2215      F2220   1.382       .  S
C2215      F2221   1.384   1_655  S
C2218      F2222   1.381       .  S
C2218      F2223   1.383       .  S
C2218      F2224   1.385       .  S
C2225      C2226   1.400       .  A
C2225      H2232   1.084       .  S
C2226      C2227   1.417       .  A
C2227      C2234   1.520       .  S
C2228      C2229   1.403       .  A
C2228      H2233   1.084       .  S
C2229      C2230   1.418   1_655  A
C2230      C2231   1.518       .  S
C2231      F2236   1.378   1_455  S
C2231      F2237   1.381   1_455  S
C2234      F2238   1.379       .  S
C2234      F2239   1.384       .  S
