geometry optimzed in LAMMPS
_audit_creation_date              2020-12-01 
_audit_creation_method            'lammps2cif' 
_symmetry_space_group_name_H-M    'P1' 
_symmetry_Int_Tables_number       1 
_symmetry_cell_setting            triclinic 
loop_ 
_symmetry_equiv_pos_as_xyz 
  x,y,z 
_cell_length_a                    49.86488232 
_cell_length_b                    27.5261564521793 
_cell_length_c                    30.062087997949988 
_cell_angle_alpha                 89.951306116117 
_cell_angle_beta                  96.64734273361105 
_cell_angle_gamma                 89.84621424621501 
loop_ 
_atom_site_label 
_atom_site_type_symbol 
_atom_site_fract_x 
_atom_site_fract_y 
_atom_site_fract_z 
_atom_site_charge 
Fe1        Fe  0.84071203  0.51016177  0.71974389     1.65800
Fe2        Fe  0.84131608  0.61702013  0.66640836     1.73200
Fe3        Fe  0.79146100  0.59212005  0.73066369     1.54400
O4          O  0.77165703  0.52868268  0.71156690    -0.81500
O5          O  0.83170986  0.68036989  0.69939077    -0.79900
O6          O  0.80455943  0.47502471  0.72732988    -0.84100
O7          O  0.84551957  0.52658429  0.78616830    -0.78900
O8          O  0.77421028  0.62355026  0.67058802    -0.80700
O9          O  0.87786547  0.61354815  0.70535462    -0.83400
C10         C  0.82808678  0.54321757  0.80982934     0.97300
C11         C  0.77964061  0.48573484  0.72041798     1.04800
O12         O  0.82435120  0.57351366  0.70584251    -1.12400
O13         O  0.85163694  0.55975893  0.62587483    -0.74800
O14         O  0.83554152  0.49241856  0.65346360    -0.78300
O15         O  0.80597191  0.56311326  0.79317039    -0.79000
C16         C  0.84345802  0.51593309  0.62123189     0.96200
O17         O  0.88014783  0.53367153  0.71506141    -0.77000
O18         O  0.80649730  0.62395538  0.62484802    -0.82200
C19         C  0.81867314  0.69016341  0.73227609     0.98900
C20         C  0.78245236  0.63172414  0.63266021     1.04800
O21         O  0.80698463  0.65772457  0.75269875    -0.77800
C22         C  0.89140743  0.57493013  0.71331996     1.03100
Fe23       Fe  0.64779770  0.93338903  0.26396192     1.65800
Fe24       Fe  0.64113351  0.82424604  0.30957509     1.73200
Fe25       Fe  0.69887294  0.85308463  0.26621021     1.54400
O26         O  0.69084242  0.88524248  0.20274325    -0.81500
O27         O  0.67118769  0.81387259  0.35996014    -0.79900
O28         O  0.64931823  0.91830816  0.19822233    -0.84100
O29         O  0.68469888  0.96835865  0.26572187    -0.78900
O30         O  0.68654616  0.78838378  0.23729804    -0.80700
O31         O  0.62705495  0.87987124  0.34858883    -0.83400
C32         C  0.70872903  0.95887926  0.28207678     0.97300
C33         C  0.67013599  0.90492467  0.18056809     1.04800
O34         O  0.66280973  0.86958885  0.27968849    -1.12400
O35         O  0.60885090  0.83090780  0.26101399    -0.74800
O36         O  0.60752587  0.91112010  0.25947968    -0.78300
O37         O  0.71590985  0.91617911  0.29374437    -0.79000
C38         C  0.59583668  0.87020876  0.25456243     0.96200
O39         O  0.64768417  0.94776945  0.33003990    -0.77000
O40         O  0.65407382  0.76311747  0.27667486    -0.82200
C41         C  0.69631062  0.80684212  0.36065089     0.98900
C42         C  0.67161629  0.75512851  0.24991779     1.04800
O43         O  0.70934911  0.81806601  0.32796138    -0.77800
C44         C  0.63712181  0.92171154  0.35805972     1.03100
Fe45       Fe  0.64908356  0.01106665  0.76508568     1.65800
Fe46       Fe  0.64869024  0.11906386  0.81569038     1.73200
Fe47       Fe  0.69606999  0.09339369  0.74816198     1.54400
O48         O  0.71762897  0.03300671  0.77197633    -0.81500
O49         O  0.65860263  0.18179817  0.78071680    -0.79900
O50         O  0.68584654  0.97745630  0.75724726    -0.84100
O51         O  0.64231308  0.02479598  0.69853334    -0.78900
O52         O  0.71330950  0.13215432  0.80516686    -0.80700
O53         O  0.61173160  0.11491320  0.77774244    -0.83400
C54         C  0.65969130  0.03784856  0.67344702     0.97300
C55         C  0.71062483  0.98912277  0.76557983     1.04800
O56         O  0.66472193  0.07469012  0.77620576    -1.12400
O57         O  0.63864150  0.06271047  0.85763847    -0.74800
O58         O  0.65603218  0.99584771  0.83128723    -0.78300
O59         O  0.68204312  0.05793397  0.68817770    -0.79000
C60         C  0.64788846  0.01951832  0.86308446     0.96200
O61         O  0.60975526  0.03464138  0.77108872    -0.77000
O62         O  0.68421450  0.12488402  0.85598714    -0.82200
C63         C  0.66865834  0.18905592  0.74411999     0.98900
C64         C  0.70685106  0.13759728  0.84483964     1.04800
O65         O  0.67650350  0.15394431  0.72178999    -0.77800
C66         C  0.59825685  0.07605380  0.77096243     1.03100
Fe67       Fe  0.84109124  0.42921365  0.21853369     1.65800
Fe68       Fe  0.84567912  0.31816359  0.17391194     1.73200
Fe69       Fe  0.78850628  0.35308207  0.21749537     1.54400
O70         O  0.79852778  0.38288079  0.28174458    -0.81500
O71         O  0.81413092  0.30286011  0.12699203    -0.79900
O72         O  0.84037471  0.41426084  0.28455770    -0.84100
O73         O  0.80512951  0.46734840  0.21883830    -0.78900
O74         O  0.79886926  0.28628926  0.24382737    -0.80700
O75         O  0.85702247  0.37217557  0.12986989    -0.83400
C76         C  0.78070346  0.45989265  0.20386920     0.97300
C77         C  0.81982487  0.40143395  0.30312201     1.04800
O78         O  0.82496444  0.36604068  0.20344262    -1.12400
O79         O  0.88023531  0.32663508  0.21786564    -0.74800
O80         O  0.88104989  0.40660025  0.22128336    -0.78300
O81         O  0.77276902  0.41795260  0.19181748    -0.79000
C82         C  0.89302935  0.36595505  0.22448059     0.96200
O83         O  0.84089498  0.44288574  0.15237267    -0.77000
O84         O  0.83488080  0.26017747  0.21326373    -0.82200
C85         C  0.78863804  0.30408679  0.12433928     0.98900
C86         C  0.81579020  0.25333549  0.23737355     1.04800
O87         O  0.77595317  0.32174496  0.15510647    -0.77800
C88         C  0.85028468  0.41686443  0.12298044     1.03100
Fe89       Fe  0.14515960  0.50784923  0.77103758     1.65800
Fe90       Fe  0.14394645  0.61853168  0.81666643     1.73200
Fe91       Fe  0.19714529  0.58400199  0.76284735     1.54400
O92         O  0.21439043  0.52085278  0.78983442    -0.81500
O93         O  0.15649528  0.67753161  0.78080260    -0.79900
O94         O  0.18123570  0.46902054  0.77164618    -0.84100
O95         O  0.14431707  0.51963127  0.70432202    -0.78900
O96         O  0.21189292  0.61930705  0.82230164    -0.80700
O97         O  0.10906311  0.61470465  0.77338956    -0.83400
C98         C  0.16401632  0.52996721  0.68284343     0.97300
C99         C  0.20604094  0.47776004  0.78329920     1.04800
O100        O  0.16223213  0.57059050  0.78332284    -1.12400
O101        O  0.13046310  0.56583702  0.85922268    -0.74800
O102        O  0.14622388  0.49495002  0.83773824    -0.78300
O103        O  0.18566904  0.54979001  0.70124398    -0.79000
C104        C  0.13709334  0.52150000  0.86688107     0.96200
O105        O  0.10572519  0.53474696  0.76800473    -0.77000
O106        O  0.17694626  0.62645006  0.86215169    -0.82200
C107        C  0.17193776  0.68398915  0.75045128     0.98900
C108        C  0.20175618  0.63106694  0.85785043     1.04800
O109        O  0.18429612  0.64910104  0.73415651    -0.77800
C110        C  0.09503292  0.57682110  0.76550179     1.03100
Fe111      Fe  0.34077006  0.92413558  0.22664103     1.65800
Fe112      Fe  0.34495947  0.81822474  0.17461662     1.73200
Fe113      Fe  0.29053983  0.84336002  0.22899930     1.54400
O114        O  0.30150681  0.87391636  0.29305871    -0.81500
O115        O  0.31252823  0.81116564  0.12842879    -0.79900
O116        O  0.34288559  0.90595251  0.29252377    -0.84100
O117        O  0.30395893  0.95885657  0.23026161    -0.78900
O118        O  0.30458298  0.77734179  0.25378436    -0.80700
O119        O  0.35648091  0.87617228  0.13501256    -0.83400
C120        C  0.27947778  0.94990385  0.21642318     0.97300
C121        C  0.32343089  0.89174852  0.31301210     1.04800
O122        O  0.32531587  0.86114242  0.21046790    -1.12400
O123        O  0.37973303  0.82190273  0.21838052    -0.74800
O124        O  0.38071981  0.90185034  0.22545945    -0.78300
O125        O  0.27206001  0.90720627  0.20521130    -0.79000
C126        C  0.39262816  0.86094117  0.22659356     0.96200
O127        O  0.33791375  0.94227118  0.16078492    -0.77000
O128        O  0.33387623  0.75503148  0.20710810    -0.82200
C129        C  0.28812510  0.80146085  0.13191206     0.98900
C130        C  0.31787606  0.74476999  0.23591295     1.04800
O131        O  0.27705420  0.80988448  0.16742189    -0.77800
C132        C  0.34706064  0.91936448  0.12930876     1.03100
Fe133      Fe  0.15015278  0.42050467  0.27254676     1.65800
Fe134      Fe  0.14553005  0.30529268  0.31144486     1.73200
Fe135      Fe  0.19978631  0.33857303  0.25833565     1.59200
O136        O  0.18625007  0.37052759  0.19648950    -0.81500
O137        O  0.17954159  0.28168262  0.34909290    -0.79900
O138        O  0.14891741  0.41404316  0.20503022    -0.84100
O139        O  0.18674786  0.45591326  0.27475421    -0.78900
O140        O  0.18632456  0.27230039  0.23331710    -0.80700
O141        O  0.14048597  0.35466144  0.36275140    -0.83400
C142        C  0.21161897  0.44528213  0.27946435     0.97300
C143        C  0.16603240  0.39674971  0.18109095     1.04800
O144        O  0.16522860  0.35443196  0.28062583    -1.12400
O145        O  0.10833186  0.32086825  0.27713072    -0.74800
O146        O  0.10991029  0.40041914  0.26784166    -0.78300
O147        O  0.21951786  0.40159949  0.28055084    -0.79000
C148        C  0.09688249  0.36097725  0.26686045     0.96200
O149        O  0.15155374  0.42894315  0.33999434    -0.77000
O150        O  0.15012756  0.25011905  0.26535880    -0.82200
C151        C  0.20480929  0.28284212  0.34812122     0.98900
C152        C  0.16816833  0.24167375  0.23960851     1.04800
O153        O  0.21597239  0.30497889  0.31793642    -0.77800
C154        C  0.14632505  0.39934311  0.37012231     1.03100
Fe155      Fe  0.34374353  0.00807327  0.72574469     1.65800
Fe156      Fe  0.34529139  0.11646517  0.67439554     1.73200
Fe157      Fe  0.29078967  0.08493572  0.72687213     1.54400
O158        O  0.27466276  0.01895343  0.70604769    -0.81500
O159        O  0.33395601  0.17767816  0.70881835    -0.79900
O160        O  0.30819641  0.96897762  0.72730156    -0.84100
O161        O  0.34404182  0.02488878  0.79191785    -0.78900
O162        O  0.27582576  0.11178072  0.66355091    -0.80700
O163        O  0.38072253  0.11286339  0.71664545    -0.83400
C164        C  0.32480695  0.04087645  0.81220133     0.97300
C165        C  0.28343867  0.97646416  0.71449369     1.04800
O166        O  0.32652398  0.07051004  0.70935888    -1.12400
O167        O  0.35732042  0.06073076  0.63347166    -0.74800
O168        O  0.34299283  0.99080463  0.65955661    -0.78300
O169        O  0.30301435  0.05910568  0.79201060    -0.79000
C170        C  0.35082817  0.01609334  0.62812809     0.96200
O171        O  0.38315833  0.03330761  0.72698677    -0.77000
O172        O  0.31236378  0.12467744  0.62869622    -0.82200
C173        C  0.31611189  0.18635146  0.73486736     0.98900
C174        C  0.28704592  0.12313183  0.62896736     1.04800
O175        O  0.30126074  0.15361462  0.74856538    -0.77800
C176        C  0.39431359  0.07454084  0.72562750     1.03100
C177        C  0.26934450  0.14792680  0.50621065    -0.22300
C178        C  0.25032902  0.18512036  0.50738483     0.09600
C179        C  0.23941385  0.19526645  0.54771996     0.10000
C180        C  0.25024870  0.17171272  0.58734764    -0.17300
C181        C  0.27085260  0.13697068  0.58667757    -0.27700
C182        C  0.27916898  0.12274431  0.54506956     0.18400
C183        C  0.24092490  0.21024900  0.46501246     0.12300
C184        C  0.21624116  0.23033805  0.54874039    -0.12000
H185        H  0.24348061  0.18194755  0.61903485     0.12600
C186        C  0.29815030  0.08079128  0.54035510    -0.22900
H187        H  0.27648640  0.13830566  0.47460309     0.08300
C188        C  0.25035867  0.25680706  0.45449848     0.04600
C189        C  0.23984140  0.27926080  0.41408818    -0.20100
C190        C  0.22083279  0.25524269  0.38386944    -0.12400
C191        C  0.21351250  0.20681508  0.39291094     0.13300
C192        C  0.22325159  0.18534158  0.43366126    -0.22800
C193        C  0.27159562  0.28238617  0.48562148    -0.05900
H194        H  0.24556750  0.31617719  0.40698241     0.14800
C195        C  0.19545414  0.17665358  0.36015565    -0.16100
H196        H  0.21701269  0.14879191  0.44107471     0.09200
H197        H  0.31709209  0.09427117  0.52865889     0.07000
H198        H  0.28843116  0.05477104  0.51538616     0.08200
H199        H  0.30308390  0.06013349  0.57187926     0.07300
H200        H  0.19865275  0.21741344  0.52580294     0.02100
H201        H  0.22196568  0.26699271  0.53791095     0.02600
H202        H  0.20993567  0.23349137  0.58286755     0.06100
H203        H  0.27689576  0.31817664  0.47201354     0.05100
H204        H  0.29018432  0.25978090  0.49036822    -0.00700
H205        H  0.26435572  0.28858155  0.51864691     0.00800
H206        H  0.20586133  0.14216711  0.35343455     0.04500
H207        H  0.19052333  0.19517499  0.32759190     0.06400
H208        H  0.17642523  0.16810397  0.37435420     0.07300
C209        C  0.27665030  0.52160908  0.29588808    -0.22300
C210        C  0.26768521  0.56461948  0.27383534     0.09600
C211        C  0.24035694  0.56886397  0.25593538     0.10000
C212        C  0.22275949  0.52984831  0.25964523    -0.17300
C213        C  0.23158519  0.48592742  0.28054908    -0.27700
C214        C  0.25900729  0.48207321  0.29943100     0.18400
C215        C  0.28684701  0.60510037  0.26855529     0.12300
C216        C  0.22970461  0.61473100  0.23263362    -0.12000
H217        H  0.20194501  0.53343572  0.24482609     0.12600
C218        C  0.26980701  0.43704750  0.32390618    -0.22900
H219        H  0.29766375  0.51880172  0.30990035     0.08300
C220        C  0.29214335  0.64117922  0.30156473     0.04600
C221        C  0.30528470  0.68419293  0.29113411    -0.20100
C222        C  0.31246277  0.69315615  0.24781703    -0.12400
C223        C  0.30833426  0.65521971  0.21538754     0.13300
C224        C  0.29620945  0.61154312  0.22682526    -0.22800
C225        C  0.28241480  0.63549428  0.34686805    -0.05900
H226        H  0.30821787  0.71260690  0.31619097     0.14800
C227        C  0.31380517  0.65939819  0.16715481    -0.16100
H228        H  0.29194121  0.58369084  0.20155478     0.09200
H229        H  0.29108175  0.44175105  0.33883886     0.07000
H230        H  0.26932875  0.40590631  0.30043053     0.08200
H231        H  0.25752023  0.42863598  0.35146579     0.07300
H232        H  0.24027895  0.62148667  0.20271553     0.02100
H233        H  0.23299655  0.64601737  0.25588948     0.02600
H234        H  0.20774044  0.61237058  0.22130044     0.06100
H235        H  0.28786217  0.66730161  0.36873848     0.05100
H236        H  0.29167393  0.60259920  0.36370451    -0.00700
H237        H  0.26009741  0.63174386  0.34300803     0.00800
H238        H  0.32808495  0.63029335  0.15972734     0.04500
H239        H  0.32248471  0.69407862  0.15794834     0.06400
H240        H  0.29461960  0.65451062  0.14486304     0.07300
C241        C  0.24314863  0.06990168  0.23594649    -0.22300
C242        C  0.21821955  0.06308998  0.21025840     0.09600
C243        C  0.21344594  0.01964150  0.18591441     0.10000
C244        C  0.23374271  0.98362179  0.18829513    -0.17300
C245        C  0.25897082  0.99015212  0.21416940    -0.27700
C246        C  0.26356835  0.03442325  0.23835237     0.18400
C247        C  0.19794220  0.10296153  0.20964606     0.12300
C248        C  0.18696145  0.01144281  0.15751138    -0.12000
H249        H  0.22985214  0.95022434  0.16958918     0.12600
C250        C  0.28955824  0.04485364  0.26770005    -0.22900
H251        H  0.24659584  0.10360441  0.25448934     0.08300
C252        C  0.18122917  0.10805406  0.24420804     0.04600
C253        C  0.16735953  0.15210077  0.24865635    -0.20100
C254        C  0.17106049  0.19205179  0.22079015    -0.12400
C255        C  0.18489281  0.18442341  0.18272039     0.13300
C256        C  0.19844830  0.14021303  0.17794646    -0.22800
C257        C  0.17951940  0.06825494  0.27816946    -0.05900
H258        H  0.15610191  0.15693276  0.27703286     0.14800
C259        C  0.18640578  0.22277194  0.14731961    -0.16100
H260        H  0.21067296  0.13582824  0.15071169     0.09200
H261        H  0.29340367  0.01625582  0.29374521     0.07000
H262        H  0.28885585  0.08025316  0.28525572     0.08200
H263        H  0.30658340  0.04667276  0.24702427     0.07300
H264        H  0.18379408  0.04007975  0.13138457     0.02100
H265        H  0.17018126  0.01287305  0.17872788     0.02600
H266        H  0.18639593  0.97554535  0.14058279     0.06100
H267        H  0.16574265  0.07815628  0.30324004     0.05100
H268        H  0.19981922  0.06108084  0.29633415    -0.00700
H269        H  0.17182640  0.03453670  0.26101669     0.00800
H270        H  0.20760728  0.23502149  0.14740988     0.04500
H271        H  0.17340681  0.25465389  0.15217544     0.06400
H272        H  0.17929890  0.20729708  0.11394405     0.07300
C273        C  0.35801920  0.99364190  0.50430651    -0.22300
C274        C  0.34255876  0.95146566  0.49673221     0.09600
C275        C  0.33240012  0.92803929  0.53279479     0.10000
C276        C  0.33661575  0.94889913  0.57550346    -0.17300
C277        C  0.35081948  0.99293761  0.58323551    -0.27700
C278        C  0.36245291  0.01472640  0.54709004     0.18400
C279        C  0.33636269  0.93337163  0.45041358     0.12300
C280        C  0.31665048  0.88146344  0.52596616    -0.12000
H281        H  0.32784910  0.93133161  0.60257711     0.12600
C282        C  0.37959587  0.05983601  0.55274795    -0.22900
H283        H  0.36611068  0.01073505  0.47624541     0.08300
C284        C  0.31328335  0.94961879  0.42272056     0.04600
C285        C  0.30828299  0.93204266  0.37875424    -0.20100
C286        C  0.32626888  0.89962877  0.36170113    -0.12400
C287        C  0.34913543  0.88266373  0.38981759     0.13300
C288        C  0.35382135  0.89971335  0.43394522    -0.22800
C289        C  0.29450252  0.98678843  0.43908476    -0.05900
H290        H  0.29116429  0.94576881  0.35684146     0.14800
C291        C  0.36891754  0.84664248  0.37433405    -0.16100
H292        H  0.37142917  0.88706055  0.45558677     0.09200
H293        H  0.36725223  0.09142807  0.56103639     0.07000
H294        H  0.38844720  0.06917147  0.52160050     0.08200
H295        H  0.39653766  0.05390549  0.57957150     0.07300
H296        H  0.32941109  0.85309851  0.51260583     0.02100
H297        H  0.29835359  0.88745487  0.50182466     0.02600
H298        H  0.31010560  0.86778518  0.55774970     0.06100
H299        H  0.27748758  0.99569500  0.41313677     0.05100
H300        H  0.30580027  0.02078056  0.44797110    -0.00700
H301        H  0.28594517  0.97273675  0.46904160     0.00800
H302        H  0.38913764  0.86370411  0.37544427     0.04500
H303        H  0.36288505  0.83322957  0.33988842     0.06400
H304        H  0.37041298  0.81456782  0.39691940     0.07300
C305        C  0.33220984  0.00839307  0.03123515    -0.22300
C306        C  0.34002418  0.98073544  0.99605990     0.09600
C307        C  0.35167389  0.93453765  0.00469815     0.10000
C308        C  0.35460999  0.91629145  0.04864007    -0.17300
C309        C  0.34600839  0.94312384  0.08434942    -0.27700
C310        C  0.33486349  0.99046727  0.07522351     0.18400
C311        C  0.33495141  0.00043610  0.95010633     0.12300
C312        C  0.36057122  0.90423663  0.96732776    -0.12000
H313        H  0.36310102  0.88038073  0.05474521     0.12600
C314        C  0.32513839  0.02272908  0.11072585    -0.22900
H315        H  0.32339087  0.04391451  0.02387860     0.08300
C316        C  0.30993870  0.99348205  0.92381904     0.04600
C317        C  0.30640580  0.01079577  0.87963490    -0.20100
C318        C  0.32744620  0.03440083  0.86118752    -0.12400
C319        C  0.35194747  0.04398230  0.88858265     0.13300
C320        C  0.35541773  0.02649259  0.93267697    -0.22800
C321        C  0.28734211  0.96637025  0.94194860    -0.05900
H322        H  0.28769726  0.00337363  0.85863417     0.14800
C323        C  0.37467130  0.07283734  0.87261293    -0.16100
H324        H  0.37436721  0.03280855  0.95355400     0.09200
H325        H  0.31787744  0.05851464  0.09703445     0.07000
H326        H  0.34191808  0.02990074  0.13750901     0.08200
H327        H  0.30792015  0.00544171  0.12493758     0.07300
H328        H  0.37629226  0.92396217  0.95124489     0.02100
H329        H  0.34307831  0.89695599  0.94188798     0.02600
H330        H  0.36915538  0.86879744  0.97968436     0.06100
H331        H  0.26922931  0.96374992  0.91682174     0.05100
H332        H  0.28142019  0.98544632  0.97184583    -0.00700
H333        H  0.29406143  0.92893742  0.95155309     0.00800
H334        H  0.37975798  0.10375183  0.89575396     0.04500
H335        H  0.36946028  0.08841638  0.83870686     0.06400
H336        H  0.39278082  0.04931343  0.87238424     0.07300
C337        C  0.24639426  0.71595234  0.93306852    -0.22300
C338        C  0.24017240  0.70033473  0.97503905     0.09600
C339        C  0.22391792  0.65911508  0.97829965     0.10000
C340        C  0.21348331  0.63513722  0.93914427    -0.17300
C341        C  0.21858280  0.65180248  0.89667727    -0.27700
C342        C  0.23553733  0.69269141  0.89356073     0.18400
C343        C  0.25196921  0.72623774  0.01549205     0.12300
C344        C  0.21738515  0.64075428  0.02304645    -0.12000
H345        H  0.20037409  0.60411011  0.94156321     0.12600
C346        C  0.24156284  0.71489445  0.84988186    -0.22900
H347        H  0.25927030  0.74742259  0.93111448     0.08300
C348        C  0.27865226  0.71656354  0.03374779     0.04600
C349        C  0.28922933  0.74119619  0.07225173    -0.20100
C350        C  0.27386455  0.77542913  0.09327611    -0.12400
C351        C  0.24695306  0.78482289  0.07526891     0.13300
C352        C  0.23626005  0.75996902  0.03629711    -0.22800
C353        C  0.29595297  0.68005772  0.01273126    -0.05900
H354        H  0.30990788  0.73377075  0.08594265     0.14800
C355        C  0.22996379  0.82195987  0.09587066    -0.16100
H356        H  0.21568152  0.76694801  0.02182162     0.09200
H357        H  0.26361847  0.71300379  0.84770401     0.07000
H358        H  0.23527451  0.75365813  0.84869296     0.08200
H359        H  0.23106058  0.69730746  0.81982582     0.07300
H360        H  0.20641350  0.66923926  0.03986810     0.02100
H361        H  0.23633031  0.63133834  0.04449436     0.02600
H362        H  0.20447440  0.60783848  0.01952943     0.06100
H363        H  0.31628828  0.67643448  0.03188948     0.05100
H364        H  0.29865254  0.69156185  0.97813875    -0.00700
H365        H  0.28614160  0.64385294  0.01167704     0.00800
H366        H  0.24011470  0.85787027  0.09683515     0.04500
H367        H  0.22698541  0.81075909  0.13041977     0.06400
H368        H  0.20974117  0.82595129  0.07641970     0.07300
C369        C  0.13739114  0.43288057  0.96398323    -0.22300
C370        C  0.14227481  0.46460561  0.00026531     0.09600
C371        C  0.14221778  0.51522267  0.99287691     0.10000
C372        C  0.13897108  0.53283006  0.94885616    -0.17300
C373        C  0.13568296  0.50099051  0.91210207    -0.27700
C374        C  0.13371341  0.45029168  0.91992976     0.18400
C375        C  0.14853698  0.44385812  0.04554626     0.12300
C376        C  0.14564826  0.55065770  0.03132534    -0.12000
H377        H  0.14016623  0.57163294  0.94321261     0.12600
C378        C  0.12745111  0.41411761  0.88251201    -0.22900
H379        H  0.13713828  0.39404099  0.97021317     0.08300
C380        C  0.12861005  0.42094719  0.06771281     0.04600
C381        C  0.13555387  0.40332522  0.11120965    -0.20100
C382        C  0.16178171  0.40894829  0.13325646    -0.12400
C383        C  0.18175550  0.43204532  0.11093686     0.13300
C384        C  0.17496310  0.44792477  0.06682016    -0.22800
C385        C  0.09983925  0.41677624  0.04632244    -0.05900
H386        H  0.12021361  0.38642804  0.12872791     0.14800
C387        C  0.20971521  0.44380964  0.13303640    -0.16100
H388        H  0.19018108  0.46559990  0.04940356     0.09200
H389        H  0.10886041  0.42534437  0.86098996     0.07000
H390        H  0.12398081  0.37714700  0.89551998     0.08200
H391        H  0.14455212  0.41125927  0.86221630     0.07300
H392        H  0.16571706  0.54581066  0.05094930     0.02100
H393        H  0.12962652  0.54459116  0.05347162     0.02600
H394        H  0.14418141  0.58891676  0.01947405     0.06100
H395        H  0.08668768  0.39952640  0.06919867     0.05100
H396        H  0.09894006  0.39423619  0.01562586    -0.00700
H397        H  0.09161876  0.45350078  0.03744267     0.00800
H398        H  0.22494737  0.42485358  0.11512006     0.04500
H399        H  0.21318566  0.43363820  0.16881205     0.06400
H400        H  0.21311400  0.48359354  0.13117083     0.07300
C401        C  0.17123106  0.52088387  0.55814242    -0.22300
C402        C  0.15528140  0.47984826  0.54702117     0.09600
C403        C  0.14230745  0.45604151  0.57987456     0.10000
C404        C  0.14556591  0.47380641  0.62355534    -0.17300
C405        C  0.16167047  0.51477108  0.63541266    -0.27700
C406        C  0.17469637  0.53875658  0.60219054     0.18400
C407        C  0.15308268  0.46075464  0.50114612     0.12300
C408        C  0.12508219  0.41173384  0.56884847    -0.12000
H409        H  0.13577369  0.45487638  0.64877374     0.12600
C410        C  0.19171222  0.58340731  0.61242360    -0.22900
H411        H  0.18112246  0.53861205  0.53231836     0.08300
C412        C  0.13367176  0.47867304  0.46731617     0.04600
C413        C  0.13144709  0.45708557  0.42486348    -0.20100
C414        C  0.14812673  0.41797739  0.41600088    -0.12400
C415        C  0.16797544  0.40083026  0.44990985     0.13300
C416        C  0.16991899  0.42210636  0.49231850    -0.22800
C417        C  0.11530209  0.52016303  0.47625727    -0.05900
H418        H  0.11671053  0.47074789  0.39845023     0.14800
C419        C  0.18827809  0.36195624  0.44232638    -0.16100
H420        H  0.18481377  0.40883513  0.51858629     0.09200
H421        H  0.17966082  0.61190466  0.62718749     0.07000
H422        H  0.19896248  0.59868397  0.58177617     0.08200
H423        H  0.20976208  0.57423298  0.63610843     0.07300
H424        H  0.13751153  0.38216687  0.55661956     0.02100
H425        H  0.10834332  0.42083216  0.54249319     0.02600
H426        H  0.11610917  0.39794561  0.59853177     0.06100
H427        H  0.10119534  0.52956886  0.44613093     0.05100
H428        H  0.12751503  0.55282515  0.48639494    -0.00700
H429        H  0.10315503  0.51013168  0.50356534     0.00800
H430        H  0.20902475  0.37619002  0.45121970     0.04500
H431        H  0.18684010  0.35001459  0.40714869     0.06400
H432        H  0.18537169  0.32996604  0.46375868     0.07300
C433        C  0.25208262  0.84895826  0.71257349    -0.22300
C434        C  0.22450600  0.86023360  0.70939742     0.09600
C435        C  0.21626199  0.90915992  0.70513466     0.10000
C436        C  0.23588500  0.94584436  0.70571655    -0.17300
C437        C  0.26378766  0.93505488  0.71068957    -0.27700
C438        C  0.27182991  0.88539089  0.71302668     0.18400
C439        C  0.20521771  0.82009383  0.71484371     0.12300
C440        C  0.18676629  0.92264078  0.69984577    -0.12000
H441        H  0.22924555  0.98332556  0.70326331     0.12600
C442        C  0.30099724  0.86976484  0.71601470    -0.22900
H443        H  0.25821058  0.81123362  0.71591160     0.08300
C444        C  0.19998003  0.78330929  0.68237496     0.04600
C445        C  0.18663956  0.74076324  0.69339615    -0.20100
C446        C  0.17823254  0.73416707  0.73613242    -0.12400
C447        C  0.18127831  0.77331771  0.76708060     0.13300
C448        C  0.19484179  0.81554667  0.75599914    -0.22800
C449        C  0.20895617  0.78857992  0.63647341    -0.05900
H450        H  0.18402348  0.71142505  0.66927067     0.14800
C451        C  0.17207223  0.77005048  0.81305300    -0.16100
H452        H  0.19882767  0.84407587  0.78065939     0.09200
H453        H  0.31040717  0.88477041  0.68723965     0.07000
H454        H  0.30311076  0.82960873  0.71506483     0.08200
H455        H  0.31209860  0.88230690  0.74805161     0.07300
H456        H  0.17735606  0.91111836  0.72981346     0.02100
H457        H  0.17633143  0.90442975  0.66976444     0.02600
H458        H  0.18373533  0.96245124  0.69573702     0.06100
H459        H  0.20271471  0.75698949  0.61478140     0.05100
H460        H  0.23126483  0.79141958  0.63899743    -0.00700
H461        H  0.19977500  0.82181797  0.62011920     0.00800
H462        H  0.18256351  0.73970642  0.83224572     0.04500
H463        H  0.14990965  0.76430138  0.80996541     0.06400
H464        H  0.17651056  0.80383379  0.83267916     0.07300
C465        C  0.28737576  0.31383208  0.72737615    -0.22300
C466        C  0.28372426  0.32233828  0.77220056     0.09600
C467        C  0.29472422  0.28932894  0.80538693     0.10000
C468        C  0.30785627  0.24711709  0.79257605    -0.17300
C469        C  0.31002857  0.23692797  0.74726752    -0.27700
C470        C  0.29997725  0.27140968  0.71424060     0.18400
C471        C  0.26535822  0.36260961  0.78206598     0.12300
C472        C  0.29193765  0.29801508  0.85407955    -0.12000
H473        H  0.31507473  0.22052359  0.81777988     0.12600
C474        C  0.29974586  0.26339825  0.66449549    -0.22900
H475        H  0.27864900  0.33905802  0.70192748     0.08300
C476        C  0.27293464  0.41172699  0.77978019     0.04600
C477        C  0.25342634  0.44827982  0.78239843    -0.20100
C478        C  0.22623892  0.43711018  0.78665035    -0.12400
C479        C  0.21911944  0.38753004  0.79131955     0.13300
C480        C  0.23877377  0.35115406  0.78890633    -0.22800
C481        C  0.30155620  0.42546259  0.77409857    -0.05900
H482        H  0.25936183  0.48590603  0.77929971     0.14800
C483        C  0.19103962  0.37213103  0.79901655    -0.16100
H484        H  0.23314905  0.31327332  0.79071684     0.09200
H485        H  0.31101401  0.29315955  0.65008671     0.07000
H486        H  0.27857586  0.26387364  0.64822063     0.08200
H487        H  0.30880418  0.22865514  0.65555949     0.07300
H488        H  0.27028520  0.29873312  0.85938814     0.02100
H489        H  0.30129183  0.33334474  0.86464749     0.02600
H490        H  0.30204080  0.26907582  0.87574884     0.06100
H491        H  0.30427515  0.46549377  0.77381071     0.05100
H492        H  0.30713171  0.41089882  0.74200368    -0.00700
H493        H  0.31546345  0.41023768  0.80220963     0.00800
H494        H  0.18987500  0.33244301  0.80522812     0.04500
H495        H  0.17654664  0.38044587  0.76912798     0.06400
H496        H  0.18499128  0.39114360  0.82882784     0.07300
C497        C  0.02393547  0.32837286  0.22447051    -0.22300
C498        C  0.00993280  0.36459137  0.24512585     0.09600
C499        C  0.02453366  0.40065907  0.27087318     0.10000
C500        C  0.05287370  0.39935626  0.27579415    -0.17300
C501        C  0.06707403  0.36254980  0.25597677    -0.27700
C502        C  0.05232248  0.32717119  0.22901753     0.18400
C503        C  0.97995547  0.36435861  0.23925990     0.12300
C504        C  0.01018979  0.43980738  0.29407732    -0.12000
H505        H  0.06403709  0.42645187  0.29652125     0.12600
C506        C  0.06559813  0.28879788  0.20318043    -0.22900
H507        H  0.01260339  0.30119447  0.20413386     0.08300
C508        C  0.96508700  0.39250353  0.20573851     0.04600
C509        C  0.93679301  0.39312547  0.20292717    -0.20100
C510        C  0.92290354  0.36518041  0.23199293    -0.12400
C511        C  0.93784028  0.33618400  0.26508096     0.13300
C512        C  0.96621907  0.33625335  0.26829414    -0.22800
C513        C  0.97905057  0.42097659  0.17232013    -0.05900
H514        H  0.92536258  0.41462259  0.17704791     0.14800
C515        C  0.92473260  0.30607026  0.29840033    -0.16100
H516        H  0.97773880  0.31467926  0.29397504     0.09200
H517        H  0.05740663  0.29093139  0.16726612     0.07000
H518        H  0.06114679  0.25227593  0.21615694     0.08200
H519        H  0.08774170  0.29309755  0.20467144     0.07300
H520        H  0.99743676  0.42301041  0.31779069     0.02100
H521        H  0.99718155  0.46168730  0.26914050     0.02600
H522        H  0.02463940  0.46482297  0.31328342     0.06100
H523        H  0.96438177  0.44050607  0.14795643     0.05100
H524        H  0.99096589  0.39588560  0.15333124    -0.00700
H525        H  0.99282081  0.44823576  0.18976669     0.00800
H526        H  0.92958411  0.26711448  0.29392488     0.04500
H527        H  0.90250350  0.31024726  0.29525948     0.06400
H528        H  0.93267838  0.31722891  0.33290061     0.07300
C529        C  0.46763379  0.09703035  0.70803927    -0.22300
C530        C  0.48116980  0.07553645  0.74648067     0.09600
C531        C  0.46614597  0.05471275  0.77862180     0.10000
C532        C  0.43777602  0.05557951  0.77132851    -0.17300
C533        C  0.42412982  0.07716402  0.73278259    -0.27700
C534        C  0.43935014  0.09767243  0.70037902     0.18400
C535        C  0.51112587  0.07531885  0.75218302     0.12300
C536        C  0.48008577  0.03108110  0.82024893    -0.12000
H537        H  0.42616732  0.03929316  0.79576717     0.12600
C538        C  0.42680924  0.11845500  0.65632604    -0.22900
H539        H  0.47931207  0.11263365  0.68327754     0.08300
C540        C  0.52603708  0.04122850  0.73000373     0.04600
C541        C  0.55437091  0.04298003  0.73612717    -0.20100
C542        C  0.56824479  0.07816172  0.76376990    -0.12400
C543        C  0.55310262  0.11223742  0.78612833     0.13300
C544        C  0.52476038  0.11038688  0.77982026    -0.22800
C545        C  0.51202035  0.00262051  0.70044347    -0.05900
H546        H  0.56580594  0.01652778  0.71917177     0.14800
C547        C  0.56647293  0.14943499  0.81810164    -0.16100
H548        H  0.51306038  0.13632600  0.79678905     0.09200
H549        H  0.43497933  0.09905611  0.62841911     0.07000
H550        H  0.43202526  0.15753650  0.65449978     0.08200
H551        H  0.40460246  0.11502211  0.65080392     0.07300
H552        H  0.49275214  0.05818794  0.84023672     0.02100
H553        H  0.49310228  0.00086408  0.81085008     0.02600
H554        H  0.46538003  0.01606064  0.84166947     0.06100
H555        H  0.52667702  0.97837669  0.68615736     0.05100
H556        H  0.49905719  0.01981908  0.67223838    -0.00700
H557        H  0.49929774  0.97997255  0.72020461     0.00800
H558        H  0.57821673  0.17538805  0.79983118     0.04500
H559        H  0.58002048  0.13100515  0.84488330     0.06400
H560        H  0.55145612  0.17088702  0.83445273     0.07300
C561        C  0.73265678  0.23673096  0.92389520    -0.22300
C562        C  0.74548575  0.20985613  0.95985646     0.09600
C563        C  0.74873692  0.15907985  0.95513816     0.10000
C564        C  0.73788102  0.13630066  0.91519446    -0.17300
C565        C  0.72473336  0.16327925  0.87946576    -0.27700
C566        C  0.72286405  0.21433619  0.88351458     0.18400
C567        C  0.75539846  0.23615053  0.00171101     0.12300
C568        C  0.76353623  0.12891199  0.99204074    -0.12000
H569        H  0.73873881  0.09702106  0.91242523     0.12600
C570        C  0.70974979  0.24627887  0.84651799    -0.22900
H571        H  0.72998661  0.27550015  0.92749202     0.08300
C572        C  0.77628001  0.27076482  0.00253279     0.04600
C573        C  0.78496362  0.29473474  0.04265320    -0.20100
C574        C  0.77419022  0.28380753  0.08271083    -0.12400
C575        C  0.75340982  0.24865753  0.08203429     0.13300
C576        C  0.74369804  0.22663697  0.04113718    -0.22800
C577        C  0.79043887  0.28093207  0.96179390    -0.05900
H578        H  0.80116905  0.32096772  0.04317677     0.14800
C579        C  0.74222628  0.23069619  0.12357211    -0.16100
H580        H  0.72746438  0.20033373  0.04034575     0.09200
H581        H  0.72406278  0.27511510  0.83885742     0.07000
H582        H  0.69139853  0.26356815  0.85716593     0.08200
H583        H  0.70410749  0.22594432  0.81524270     0.07300
H584        H  0.75273026  0.12981813  0.02224837     0.02100
H585        H  0.78428372  0.14325158  0.00054713     0.02600
H586        H  0.76516162  0.09031314  0.98191776     0.06100
H587        H  0.80744379  0.30670338  0.96936684     0.05100
H588        H  0.77625151  0.29734612  0.93480163    -0.00700
H589        H  0.79874403  0.24659916  0.94958042     0.00800
H590        H  0.72028696  0.23883668  0.12105529     0.04500
H591        H  0.75206874  0.24669411  0.15495973     0.06400
H592        H  0.74511534  0.19072754  0.12639280     0.07300
C593        C  0.46626600  0.82865868  0.26481204    -0.22300
C594        C  0.47936415  0.85962634  0.23717690     0.09600
C595        C  0.46394761  0.89042961  0.20664126     0.10000
C596        C  0.43576695  0.89052216  0.20510081    -0.17300
C597        C  0.42247535  0.85986255  0.23275527    -0.27700
C598        C  0.43792395  0.82824964  0.26296228     0.18400
C599        C  0.50927363  0.86157823  0.24209285     0.12300
C600        C  0.47729374  0.92314121  0.17558879    -0.12000
H601        H  0.42393465  0.91411724  0.18141436     0.12600
C602        C  0.42543950  0.79503549  0.29469323    -0.22900
H603        H  0.47824925  0.80528964  0.28844365     0.08300
C604        C  0.52343831  0.89397504  0.27255417     0.04600
C605        C  0.55159733  0.89719305  0.27431369    -0.20100
C606        C  0.56602447  0.86862803  0.24646591    -0.12400
C607        C  0.55172910  0.83676390  0.21529000     0.13300
C608        C  0.52350298  0.83340228  0.21378377    -0.22800
C609        C  0.50879119  0.92504983  0.30325872    -0.05900
H610        H  0.56253203  0.92128584  0.29852915     0.14800
C611        C  0.56534036  0.80735175  0.18203573    -0.16100
H612        H  0.51242781  0.80936950  0.18969472     0.09200
H613        H  0.43395811  0.80328474  0.32963807     0.07000
H614        H  0.43017695  0.75669188  0.28712095     0.08200
H615        H  0.40324488  0.79904259  0.29292496     0.07300
H616        H  0.48903215  0.90091370  0.15381823     0.02100
H617        H  0.49110841  0.94873405  0.19533047     0.02600
H618        H  0.46227445  0.94481758  0.15367937     0.06100
H619        H  0.52291292  0.94836242  0.32507491     0.05100
H620        H  0.49783831  0.90152440  0.32508986    -0.00700
H621        H  0.49408892  0.94906239  0.28320465     0.00800
H622        H  0.56257482  0.76804132  0.18834658     0.04500
H623        H  0.58722060  0.81488804  0.18328636     0.06400
H624        H  0.55603897  0.81613410  0.14758790     0.07300
C625        C  0.69233823  0.62248697  0.25541372    -0.22300
C626        C  0.70463052  0.61861976  0.21590835     0.09600
C627        C  0.70092906  0.65615599  0.18379295     0.10000
C628        C  0.68716588  0.69864405  0.19381342    -0.17300
C629        C  0.67727494  0.70482862  0.23545025    -0.27700
C630        C  0.67897337  0.66526889  0.26594570     0.18400
C631        C  0.72416525  0.57836184  0.21178034     0.12300
C632        C  0.71289258  0.65267138  0.14012755    -0.12000
H633        H  0.68575875  0.72860062  0.17020210     0.12600
C634        C  0.66893427  0.66911619  0.31122815    -0.22900
H635        H  0.69497685  0.59311186  0.27963939     0.08300
C636        C  0.74963389  0.57816390  0.23778393     0.04600
C637        C  0.76760388  0.53966997  0.23344990    -0.20100
C638        C  0.76101788  0.50097421  0.20363194    -0.12400
C639        C  0.73570303  0.50206598  0.17649965     0.13300
C640        C  0.71760678  0.54067024  0.18115056    -0.22800
C641        C  0.75809196  0.61891881  0.26986631    -0.05900
H642        H  0.78683348  0.53945832  0.25440269     0.14800
C643        C  0.72771034  0.46360755  0.14187542    -0.16100
H644        H  0.69814752  0.54141371  0.16091974     0.09200
H645        H  0.67968492  0.69881359  0.33078025     0.07000
H646        H  0.67247982  0.63507562  0.33092996     0.08200
H647        H  0.64688337  0.67640126  0.30708411     0.07300
H648        H  0.70409657  0.62117347  0.12061478     0.02100
H649        H  0.73512273  0.64800643  0.14668421     0.02600
H650        H  0.70870880  0.68580040  0.11933055     0.06100
H651        H  0.77904923  0.61389813  0.28626340     0.05100
H652        H  0.74456062  0.62055454  0.29663184    -0.00700
H653        H  0.75716122  0.65402817  0.25152687     0.00800
H654        H  0.72528976  0.42808643  0.15837413     0.04500
H655        H  0.74331918  0.46068907  0.11848074     0.06400
H656        H  0.70817449  0.47233728  0.12177285     0.07300
C657        C  0.80404629  0.11721852  0.24624738    -0.22300
C658        C  0.78499879  0.11709733  0.27712683     0.09600
C659        C  0.78088023  0.15972763  0.30137017     0.10000
C660        C  0.79419271  0.20251606  0.29142063    -0.17300
C661        C  0.81072714  0.20449764  0.25642830    -0.27700
C662        C  0.81676154  0.16046132  0.23510086     0.18400
C663        C  0.76648016  0.07496451  0.27812711     0.12300
C664        C  0.76097054  0.16100227  0.33546411    -0.12000
H665        H  0.78987871  0.23565033  0.30878159     0.12600
C666        C  0.83486979  0.15893155  0.19834000    -0.22900
H667        H  0.80730876  0.08407328  0.22821797     0.08300
C668        C  0.74522627  0.06827349  0.24339952     0.04600
C669        C  0.72687141  0.03036110  0.24645895    -0.20100
C670        C  0.72897599  0.99856436  0.28332770    -0.12400
C671        C  0.75023853  0.00551286  0.31844743     0.13300
C672        C  0.76881366  0.04347680  0.31511973    -0.22800
C673        C  0.74152743  0.10172075  0.20333730    -0.05900
H674        H  0.71074196  0.02526508  0.21937604     0.14800
C675        C  0.75346201  0.97556827  0.36072908    -0.16100
H676        H  0.78490595  0.04925760  0.34208195     0.09200
H677        H  0.82611983  0.18139695  0.16953630     0.07000
H678        H  0.83731406  0.12140588  0.18583593     0.08200
H679        H  0.85522826  0.17260858  0.21115897     0.07300
H680        H  0.76726203  0.13488451  0.36285708     0.02100
H681        H  0.74055219  0.15113165  0.31932092     0.02600
H682        H  0.75967228  0.19762744  0.35056363     0.06100
H683        H  0.72342931  0.09204663  0.17995608     0.05100
H684        H  0.75934550  0.09941343  0.18448926    -0.00700
H685        H  0.73904188  0.13973657  0.21452026     0.00800
H686        H  0.77307283  0.95596252  0.36352798     0.04500
H687        H  0.73721748  0.94871529  0.36247348     0.06400
H688        H  0.75323138  0.99991614  0.39013042     0.07300
C689        C  0.65929919  0.92875152  0.95954500    -0.22300
C690        C  0.65854298  0.95990581  0.99596953     0.09600
C691        C  0.65297119  0.00966910  0.98900435     0.10000
C692        C  0.64877579  0.02756950  0.94523698    -0.17300
C693        C  0.65009496  0.99691173  0.90816433    -0.27700
C694        C  0.65512225  0.94637182  0.91556235     0.18400
C695        C  0.66277427  0.93953548  0.04143745     0.12300
C696        C  0.65133028  0.04378180  0.02780955    -0.12000
H697        H  0.64501930  0.06613120  0.94014665     0.12600
C698        C  0.65594418  0.91020268  0.87799016    -0.22900
H699        H  0.66328770  0.89049728  0.96573350     0.08300
C700        C  0.64154770  0.91670863  0.06026279     0.04600
C701        C  0.64537670  0.90331027  0.10534373    -0.20100
C702        C  0.66970463  0.91319406  0.13221183    -0.12400
C703        C  0.69130364  0.93517389  0.11283337     0.13300
C704        C  0.68763881  0.94699493  0.06721011    -0.22800
C705        C  0.61456090  0.90835169  0.03326427    -0.05900
H706        H  0.62885368  0.88651823  0.12022376     0.14800
C707        C  0.71765412  0.95022554  0.13897284    -0.16100
H708        H  0.70374025  0.96485788  0.05219925     0.09200
H709        H  0.63687188  0.91214568  0.85498146     0.07000
H710        H  0.65816498  0.87230011  0.89063721     0.08200
H711        H  0.67350450  0.91750669  0.85943683     0.07300
H712        H  0.67101518  0.04472105  0.04919504     0.02100
H713        H  0.63542471  0.03129677  0.04810960     0.02600
H714        H  0.64630754  0.08143582  0.01635908     0.06100
H715        H  0.59999668  0.89091669  0.05355613     0.05100
H716        H  0.61707188  0.88425731  0.00444915    -0.00700
H717        H  0.60583119  0.94358538  0.02063793     0.00800
H718        H  0.73452435  0.92985950  0.12651829     0.04500
H719        H  0.71858749  0.94440487  0.17543828     0.06400
H720        H  0.72087575  0.98968687  0.13398568     0.07300
C721        C  0.64707993  0.04366983  0.54667861    -0.22300
C722        C  0.64241003  0.99438856  0.53705650     0.09600
C723        C  0.64336483  0.96011633  0.57198650     0.10000
C724        C  0.64895204  0.97600956  0.61612736    -0.17300
C725        C  0.65414192  0.02510003  0.62601871    -0.27700
C726        C  0.65286914  0.05964909  0.59102511     0.18400
C727        C  0.64004553  0.97818706  0.49026843     0.12300
C728        C  0.63921757  0.90668460  0.56257787    -0.12000
H729        H  0.64984321  0.94972137  0.64324260     0.12600
C730        C  0.65684026  0.11330655  0.59909994    -0.22900
H731        H  0.64656161  0.06960035  0.51943317     0.08300
C732        C  0.61486073  0.97167858  0.46440166     0.04600
C733        C  0.61417510  0.95229203  0.42111083    -0.20100
C734        C  0.63818921  0.93983688  0.40380445    -0.12400
C735        C  0.66336043  0.94619470  0.43006271     0.13300
C736        C  0.66391092  0.96571205  0.47289019    -0.22800
C737        C  0.58893261  0.98528166  0.48244019    -0.05900
H738        H  0.59505299  0.94736463  0.40064684     0.14800
C739        C  0.69002165  0.93161437  0.41475116    -0.16100
H740        H  0.68310879  0.97016886  0.49341906     0.09200
H741        H  0.63854184  0.13327785  0.58441049     0.07000
H742        H  0.67442389  0.12598551  0.58276369     0.08200
H743        H  0.66033615  0.12277212  0.63507356     0.07300
H744        H  0.65480340  0.89317770  0.54206329     0.02100
H745        H  0.61892139  0.90059654  0.54414465     0.02600
H746        H  0.64073922  0.88494624  0.59392069     0.06100
H747        H  0.57107642  0.97803216  0.45769837     0.05100
H748        H  0.58912917  0.02458707  0.49072283    -0.00700
H749        H  0.58671614  0.96399988  0.51315816     0.00800
H750        H  0.70310345  0.96413131  0.41436017     0.04500
H751        H  0.68808455  0.91505280  0.38099378     0.06400
H752        H  0.70019113  0.90455911  0.43847721     0.07300
C753        C  0.02151322  0.61567652  0.76663548    -0.22300
C754        C  0.00817171  0.58040891  0.73888315     0.09600
C755        C  0.02334992  0.54587376  0.71774150     0.10000
C756        C  0.05166628  0.54637397  0.72606876    -0.17300
C757        C  0.06523339  0.58110401  0.75462164    -0.27700
C758        C  0.04983031  0.61662414  0.77482611     0.18400
C759        C  0.97822886  0.57963560  0.73326668     0.12300
C760        C  0.00960678  0.50805380  0.68695849    -0.12000
H761        H  0.06325742  0.51925995  0.71047181     0.12600
C762        C  0.06281552  0.65437024  0.80662071    -0.22900
H763        H  0.00961129  0.64209338  0.78256006     0.08300
C764        C  0.96363020  0.55630111  0.76464308     0.04600
C765        C  0.93528602  0.55528786  0.75727032    -0.20100
C766        C  0.92122511  0.57760563  0.71948973    -0.12400
C767        C  0.93599514  0.60081051  0.68789743     0.13300
C768        C  0.96428636  0.60193706  0.69558349    -0.22800
C769        C  0.97801508  0.53234678  0.80575827    -0.05900
H770        H  0.92401792  0.53731543  0.78126060     0.14800
C771        C  0.92295052  0.62280909  0.64469432    -0.16100
H772        H  0.97564561  0.61947609  0.67141342     0.09200
H773        H  0.04755557  0.67729406  0.82086263     0.07000
H774        H  0.07557435  0.67890287  0.78871917     0.08200
H775        H  0.07530434  0.63636202  0.83493945     0.07300
H776        H  0.99748432  0.52606685  0.65825711     0.02100
H777        H  0.99608454  0.48561797  0.70542663     0.02600
H778        H  0.02440697  0.48350643  0.67344447     0.06100
H779        H  0.96361897  0.51544410  0.82669512     0.05100
H780        H  0.99002243  0.55976391  0.82646656    -0.00700
H781        H  0.99172834  0.50352519  0.79575306     0.00800
H782        H  0.92695901  0.66246679  0.64467324     0.04500
H783        H  0.90089137  0.61709050  0.63871573     0.06400
H784        H  0.93174941  0.60602769  0.61606595     0.07300
C785        C  0.73782049  0.71936981  0.56010830    -0.22300
C786        C  0.74168188  0.70165933  0.51766874     0.09600
C787        C  0.75589769  0.65799582  0.51357990     0.10000
C788        C  0.76672859  0.63360837  0.55238275    -0.17300
C789        C  0.76434366  0.65251077  0.59521910    -0.27700
C790        C  0.74939189  0.69595328  0.59917612     0.18400
C791        C  0.73029238  0.72908123  0.47775803     0.12300
C792        C  0.76022312  0.63792061  0.46831105    -0.12000
H793        H  0.77840924  0.60066110  0.54926084     0.12600
C794        C  0.74654715  0.72098062  0.64305650    -0.22900
H795        H  0.72658492  0.75284307  0.56269969     0.08300
C796        C  0.70352233  0.72134449  0.45912415     0.04600
C797        C  0.69347345  0.74722131  0.42087558    -0.20100
C798        C  0.70946637  0.78101234  0.40061088    -0.12400
C799        C  0.73639749  0.78888687  0.41949748     0.13300
C800        C  0.74650993  0.76264078  0.45805111    -0.22800
C801        C  0.68558811  0.68560115  0.47952654    -0.05900
H802        H  0.67286285  0.74059031  0.40648545     0.14800
C803        C  0.75416133  0.82564635  0.40023172    -0.16100
H804        H  0.76713258  0.76824131  0.47298409     0.09200
H805        H  0.72486947  0.72283045  0.64816732     0.07000
H806        H  0.75442589  0.75858418  0.64193864     0.08200
H807        H  0.75758321  0.70321040  0.67261600     0.07300
H808        H  0.77154323  0.66458381  0.45003105     0.02100
H809        H  0.74044569  0.63060624  0.44854495     0.02600
H810        H  0.77194521  0.60345215  0.47118684     0.06100
H811        H  0.66515001  0.68385041  0.46048534     0.05100
H812        H  0.68326723  0.69653611  0.51441560    -0.00700
H813        H  0.69465595  0.64871403  0.47977224     0.00800
H814        H  0.77413783  0.82861381  0.42062199     0.04500
H815        H  0.74435504  0.86195322  0.39929374     0.06400
H816        H  0.75773590  0.81481748  0.36586688     0.07300
C817        C  0.80653851  0.45058387  0.41613057    -0.22300
C818        C  0.83047514  0.43674938  0.44212852     0.09600
C819        C  0.84949334  0.40754262  0.42341983     0.10000
C820        C  0.84448920  0.39408992  0.37834433    -0.17300
C821        C  0.82111091  0.40977214  0.35155295    -0.27700
C822        C  0.80177176  0.43838746  0.37069972     0.18400
C823        C  0.83585589  0.45600173  0.48803200     0.12300
C824        C  0.87548348  0.39226995  0.45046167    -0.12000
H825        H  0.85938088  0.37265568  0.36340961     0.12600
C826        C  0.77696250  0.45976801  0.34418651    -0.22900
H827        H  0.79209240  0.47326163  0.43091582     0.08300
C828        C  0.84380610  0.50458424  0.49580523     0.04600
C829        C  0.84703133  0.52229478  0.53969892    -0.20100
C830        C  0.84243021  0.49269058  0.57628976    -0.12400
C831        C  0.83547730  0.44301595  0.56818413     0.13300
C832        C  0.83228409  0.42563029  0.52406181    -0.22800
C833        C  0.84886330  0.53776415  0.45772681    -0.05900
H834        H  0.85256284  0.56012978  0.54512106     0.14800
C835        C  0.83118009  0.40771453  0.60511970    -0.16100
H836        H  0.82639950  0.38804511  0.51735564     0.09200
H837        H  0.77738302  0.49995565  0.34754745     0.07000
H838        H  0.75862346  0.44583653  0.35759200     0.08200
H839        H  0.77523530  0.45161714  0.30799736     0.07300
H840        H  0.87103741  0.36998992  0.47949322     0.02100
H841        H  0.88707686  0.42492855  0.46277090     0.02600
H842        H  0.88835330  0.37029271  0.43029006     0.06100
H843        H  0.85555451  0.57439307  0.46982455     0.05100
H844        H  0.83008157  0.54230323  0.43441106    -0.00700
H845        H  0.86486868  0.52201578  0.43928971     0.00800
H846        H  0.82732285  0.37026958  0.59218298     0.04500
H847        H  0.81333219  0.41868738  0.62165621     0.06400
H848        H  0.84947900  0.40622914  0.62992334     0.07300
C849        C  0.86343049  0.51725159  0.92543129    -0.22300
C850        C  0.84192721  0.49845576  0.94596420     0.09600
C851        C  0.81537958  0.50120751  0.92412320     0.10000
C852        C  0.81118902  0.51933020  0.88037023    -0.17300
C853        C  0.83293614  0.53531332  0.85848341    -0.27700
C854        C  0.85922325  0.53663416  0.88213849     0.18400
C855        C  0.84745728  0.47722973  0.99099136     0.12300
C856        C  0.79157572  0.48463890  0.94683524    -0.12000
H857        H  0.79101886  0.51883980  0.86248837     0.12600
C858        C  0.88312680  0.55894314  0.86332421    -0.22900
H859        H  0.88360704  0.51678926  0.94333805     0.08300
C860        C  0.84990422  0.42667408  0.99749417     0.04600
C861        C  0.85217188  0.40803167  0.04117296    -0.20100
C862        C  0.85214629  0.43900247  0.07840304    -0.12400
C863        C  0.85163984  0.49023911  0.07146025     0.13300
C864        C  0.84925029  0.50841587  0.02771246    -0.22800
C865        C  0.84990001  0.39252512  0.95832586    -0.05900
H866        H  0.85290461  0.36906466  0.04598719     0.14800
C867        C  0.85351115  0.52650396  0.10935688    -0.16100
H868        H  0.84790354  0.54732574  0.02190992     0.09200
H869        H  0.89827079  0.53032921  0.85858829     0.07000
H870        H  0.89257575  0.58641178  0.88720479     0.08200
H871        H  0.87759989  0.57808582  0.83112772     0.07300
H872        H  0.79051884  0.50603528  0.97787843     0.02100
H873        H  0.79364945  0.44556285  0.95563323     0.02600
H874        H  0.77223189  0.48963002  0.92496571     0.06100
H875        H  0.85239300  0.35411245  0.96938748     0.05100
H876        H  0.86685001  0.40175205  0.93895382    -0.00700
H877        H  0.83061083  0.39563382  0.93606646     0.00800
H878        H  0.85556871  0.56429550  0.09722749     0.04500
H879        H  0.87150746  0.51850576  0.13361531     0.06400
H880        H  0.83491455  0.52558634  0.12633838     0.07300
C881        C  0.77719595  0.91927020  0.76124358    -0.22300
C882        C  0.76811938  0.87124904  0.76206315     0.09600
C883        C  0.74068982  0.86211874  0.76616113     0.10000
C884        C  0.72288131  0.90126852  0.76873432    -0.17300
C885        C  0.73153857  0.94981410  0.76673447    -0.27700
C886        C  0.75936399  0.95875280  0.76334007     0.18400
C887        C  0.78706981  0.83065506  0.75606905     0.12300
C888        C  0.72997538  0.81094286  0.76642938    -0.12000
H889        H  0.70182084  0.89362118  0.77159562     0.12600
C890        C  0.77057237  0.00933486  0.76050318    -0.22900
H891        H  0.79832560  0.92580098  0.75800537     0.08300
C892        C  0.79383711  0.81810134  0.71324642     0.04600
C893        C  0.80730374  0.77406662  0.70755783    -0.20100
C894        C  0.81346883  0.74161300  0.74346807    -0.12400
C895        C  0.80886482  0.75644775  0.78712751     0.13300
C896        C  0.79589861  0.80104466  0.79283971    -0.22800
C897        C  0.78530587  0.84959573  0.67303595    -0.05900
H898        H  0.81077790  0.76305393  0.67409771     0.14800
C899        C  0.81714380  0.72532114  0.82774091    -0.16100
H900        H  0.79113347  0.81154496  0.82579604     0.09200
H901        H  0.76011504  0.02854040  0.73091794     0.07000
H902        H  0.79248666  0.00890331  0.75683000     0.08200
H903        H  0.76801306  0.02974636  0.79156491     0.07300
H904        H  0.74006953  0.79080255  0.79571908     0.02100
H905        H  0.73382065  0.79200053  0.73517332     0.02600
H906        H  0.70788917  0.81027983  0.76857606     0.06100
H907        H  0.79163580  0.83385066  0.64186684     0.05100
H908        H  0.79463995  0.88604212  0.67791107    -0.00700
H909        H  0.76298493  0.85349320  0.66843869     0.00800
H910        H  0.81420421  0.74466979  0.85923237     0.04500
H911        H  0.83885545  0.71567826  0.82906748     0.06400
H912        H  0.80485970  0.69176797  0.82686122     0.07300
C913        C  0.68110484  0.32596950  0.74497403    -0.22300
C914        C  0.70347828  0.32763011  0.72066408     0.09600
C915        C  0.71075945  0.28590549  0.69784232     0.10000
C916        C  0.69665700  0.24259485  0.70216551    -0.17300
C917        C  0.67568824  0.23912671  0.72981712    -0.27700
C918        C  0.66668103  0.28248204  0.74903477     0.18400
C919        C  0.72083144  0.37145824  0.72264961     0.12300
C920        C  0.73445165  0.28634540  0.67083835    -0.12000
H921        H  0.70365353  0.21035116  0.68634064     0.12600
C922        C  0.64206963  0.28466996  0.77366443    -0.22900
H923        H  0.67518221  0.35853629  0.76156534     0.08300
C924        C  0.71738410  0.40828244  0.68984189     0.04600
C925        C  0.73662499  0.44565631  0.69039430    -0.20100
C926        C  0.75923477  0.44697312  0.72306224    -0.12400
C927        C  0.76166262  0.41140297  0.75755470     0.13300
C928        C  0.74270419  0.37372323  0.75627449    -0.22800
C929        C  0.69362230  0.40768402  0.65405586    -0.05900
H930        H  0.73434617  0.47333498  0.66456197     0.14800
C931        C  0.78320691  0.41254261  0.79720503    -0.16100
H932        H  0.74505052  0.34560413  0.78174412     0.09200
H933        H  0.62860661  0.31441183  0.75945454     0.07000
H934        H  0.64817757  0.29225038  0.80966181     0.08200
H935        H  0.62990502  0.25103257  0.77023530     0.07300
H936        H  0.75318277  0.29577335  0.69274157     0.02100
H937        H  0.73099186  0.31354267  0.64350676     0.02600
H938        H  0.73760311  0.25042959  0.65542877     0.06100
H939        H  0.69385521  0.43925812  0.63107518     0.05100
H940        H  0.67458179  0.40901570  0.66985705    -0.00700
H941        H  0.69392527  0.37400535  0.63386251     0.00800
H942        H  0.77352442  0.41120975  0.82865545     0.04500
H943        H  0.79564207  0.44581756  0.79907340     0.06400
H944        H  0.79663436  0.38042294  0.79616289     0.07300
loop_ 
_geom_bond_atom_site_label_1 
_geom_bond_atom_site_label_2 
_geom_bond_distance 
_geom_bond_site_symmetry_2 
_ccdc_geom_bond_type 
Fe1          O17   2.092       .  S
Fe1           O7   2.035       .  S
Fe1          O14   2.039       .  S
Fe1           O6   2.084       .  S
Fe1          O12   1.948       .  S
Fe2           O5   2.088       .  S
Fe2           O9   2.051       .  S
Fe2          O13   2.092       .  S
Fe2          O18   2.027       .  S
Fe2          O12   1.947       .  S
Fe3          O21   2.047       .  S
Fe3           O8   2.094       .  S
Fe3          O15   2.091       .  S
Fe3           O4   2.058       .  S
Fe3          O12   1.946       .  S
O4           C11   1.265       .  A
O5           C19   1.273       .  A
O6           C11   1.270       .  A
O7           C10   1.270       .  A
O8           C20   1.276       .  A
O9           C22   1.266       .  A
C10          O15   1.279       .  A
C10         C853   1.471       .  S
C11         C926   1.485       .  S
O13          C16   1.277       .  A
O14          C16   1.266       .  A
C16         C830   1.491       .  S
O17          C22   1.272       .  A
O18          C20   1.266       .  A
C19          O21   1.264       .  A
C19         C894   1.485       .  S
C20         C789   1.473       .  S
C22         C766   1.479       .  S
Fe23         O39   2.026       .  S
Fe23         O29   2.074       .  S
Fe23         O36   2.091       .  S
Fe23         O28   2.030       .  S
Fe23         O34   1.944       .  S
Fe24         O27   2.023       .  S
Fe24         O31   2.098       .  S
Fe24         O35   2.052       .  S
Fe24         O40   2.091       .  S
Fe24         O34   1.940       .  S
Fe25         O43   2.102       .  S
Fe25         O30   2.047       .  S
Fe25         O37   2.067       .  S
Fe25         O26   2.098       .  S
Fe25         O34   1.941       .  S
O26          C33   1.281       .  A
O27          C41   1.265       .  A
O28          C33   1.273       .  A
O29          C32   1.268       .  A
O30          C42   1.267       .  A
O31          C44   1.277       .  A
C32          O37   1.265       .  A
C32         C670   1.487       .  S
C33         C702   1.469       .  S
O35          C38   1.263       .  A
O36          C38   1.270       .  A
C38         C606   1.479       .  S
O39          C44   1.267       .  A
O40          C42   1.274       .  A
C41          O43   1.278       .  A
C41         C798   1.481       .  S
C42         C629   1.488       .  S
C44         C734   1.459       .  S
Fe45         O61   2.092       .  S
Fe45         O51   2.025       .  S
Fe45         O58   2.023   1_545  S
Fe45         O50   2.089   1_545  S
Fe45         O56   1.933       .  S
Fe46         O49   2.110       .  S
Fe46         O53   2.056       .  S
Fe46         O57   2.096       .  S
Fe46         O62   2.034       .  S
Fe46         O56   1.938       .  S
Fe47         O65   2.042       .  S
Fe47         O52   2.117       .  S
Fe47         O59   2.100       .  S
Fe47         O48   2.059       .  S
Fe47         O56   1.931       .  S
O48          C55   1.267   1_545  A
O49          C63   1.277       .  A
O50          C55   1.274       .  A
O51          C54   1.265       .  A
O52          C64   1.280       .  A
O53          C66   1.269       .  A
C54          O59   1.278       .  A
C54         C725   1.464       .  S
C55         C885   1.498       .  S
O57          C60   1.278       .  A
O58          C60   1.262   1_565  A
C60         C693   1.483   1_545  S
O61          C66   1.274       .  A
O62          C64   1.264       .  A
C63          O65   1.264       .  A
C63         C917   1.498       .  S
C64         C565   1.472       .  S
C66         C542   1.488       .  S
Fe67         O83   2.023       .  S
Fe67         O73   2.076       .  S
Fe67         O80   2.078       .  S
Fe67         O72   2.031       .  S
Fe67         O78   1.950       .  S
Fe68         O71   2.033       .  S
Fe68         O75   2.111       .  S
Fe68         O79   2.060       .  S
Fe68         O84   2.094       .  S
Fe68         O78   1.949       .  S
Fe69         O87   2.095       .  S
Fe69         O74   2.042       .  S
Fe69         O81   2.062       .  S
Fe69         O70   2.106       .  S
Fe69         O78   1.947       .  S
O70          C77   1.283       .  A
O71          C85   1.265       .  A
O72          C77   1.273       .  A
O73          C76   1.266       .  A
O74          C86   1.267       .  A
O75          C88   1.285       .  A
C76          O81   1.261       .  A
C76         C638   1.495       .  S
C77         C821   1.468       .  S
O79          C82   1.262       .  A
O80          C82   1.265       .  A
C82         C510   1.481       .  S
O83          C88   1.268       .  A
O84          C86   1.276       .  A
C85          O87   1.275       .  A
C85         C574   1.480       .  S
C86         C661   1.494       .  S
C88         C862   1.484       .  S
Fe89        O105   2.091       .  S
Fe89         O95   2.027       .  S
Fe89        O102   2.031       .  S
Fe89         O94   2.088       .  S
Fe89        O100   1.944       .  S
Fe90         O93   2.086       .  S
Fe90         O97   2.051       .  S
Fe90        O101   2.096       .  S
Fe90        O106   2.026       .  S
Fe90        O100   1.946       .  S
Fe91        O109   2.056       .  S
Fe91         O96   2.093       .  S
Fe91        O103   2.099       .  S
Fe91         O92   2.061       .  S
Fe91        O100   1.949       .  S
O92          C99   1.266       .  A
O93         C107   1.273       .  A
O94          C99   1.270       .  A
O95          C98   1.269       .  A
O96         C108   1.276       .  A
O97         C110   1.265       .  A
C98         O103   1.279       .  A
C98         C405   1.478       .  S
C99         C478   1.499       .  S
O101        C104   1.277       .  A
O102        C104   1.265       .  A
C104        C373   1.481       .  S
O105        C110   1.272       .  A
O106        C108   1.265       .  A
C107        O109   1.269       .  A
C107        C446   1.491       .  S
C108        C341   1.473       .  S
C110        C757   1.488       .  S
Fe111       O127   2.030       .  S
Fe111       O117   2.081       .  S
Fe111       O124   2.087       .  S
Fe111       O116   2.033       .  S
Fe111       O122   1.939       .  S
Fe112       O115   2.016       .  S
Fe112       O119   2.110       .  S
Fe112       O123   2.054       .  S
Fe112       O128   2.101       .  S
Fe112       O122   1.938       .  S
Fe113       O131   2.109       .  S
Fe113       O118   2.054       .  S
Fe113       O125   2.070       .  S
Fe113       O114   2.116       .  S
Fe113       O122   1.945       .  S
O114        C121   1.284       .  A
O115        C129   1.263       .  A
O116        C121   1.270       .  A
O117        C120   1.268       .  A
O118        C130   1.270       .  A
O119        C132   1.281       .  A
C120        O125   1.267       .  A
C120        C245   1.502       .  S
C121        C286   1.470       .  S
O123        C126   1.264       .  A
O124        C126   1.270       .  A
C126        C597   1.479       .  S
O127        C132   1.265       .  A
O128        C130   1.276       .  A
C129        O131   1.278       .  A
C129        C350   1.477       .  S
C130        C222   1.498       .  S
C132        C309   1.496       .  S
Fe133       O149   2.034       .  S
Fe133       O139   2.065       .  S
Fe133       O146   2.072       .  S
Fe133       O138   2.031       .  S
Fe133       O144   1.970       .  S
Fe134       O137   2.032       .  S
Fe134       O141   2.093       .  S
Fe134       O145   2.059       .  S
Fe134       O150   2.087       .  S
Fe134       O144   1.967       .  S
Fe135       O153   2.092       .  S
Fe135       O140   2.058       .  S
Fe135       O147   2.070       .  S
Fe135       O136   2.095       .  S
Fe135       O144   1.968       .  S
O136        C143   1.280       .  A
O137        C151   1.264       .  A
O138        C143   1.270       .  A
O139        C142   1.265       .  A
O140        C152   1.269       .  A
O141        C154   1.278       .  A
C142        O147   1.263       .  A
C142        C213   1.498       .  S
C143        C382   1.468       .  S
O145        C148   1.263       .  A
O146        C148   1.265       .  A
C148        C501   1.485       .  S
O149        C154   1.268       .  A
O150        C152   1.274       .  A
C151        O153   1.274       .  A
C151        C190   1.472       .  S
C152        C254   1.492       .  S
C154        C414   1.465       .  S
Fe155       O171   2.083       .  S
Fe155       O161   2.041       .  S
Fe155       O168   2.042   1_545  S
Fe155       O160   2.081   1_545  S
Fe155       O166   1.956       .  S
Fe156       O159   2.089       .  S
Fe156       O163   2.055       .  S
Fe156       O167   2.097       .  S
Fe156       O172   2.027       .  S
Fe156       O166   1.953       .  S
Fe157       O175   2.049       .  S
Fe157       O162   2.096       .  S
Fe157       O169   2.105       .  S
Fe157       O158   2.057       .  S
Fe157       O166   1.955       .  S
O158        C165   1.263   1_545  A
O159        C173   1.274       .  A
O160        C165   1.266       .  A
O161        C164   1.272       .  A
O162        C174   1.275       .  A
O163        C176   1.264       .  A
C164        O169   1.283       .  A
C164        C318   1.474       .  S
C165        C437   1.501       .  S
O167        C170   1.277       .  A
O168        C170   1.271   1_565  A
C170        C277   1.493   1_545  S
O171        C176   1.268       .  A
O172        C174   1.264       .  A
C173        O175   1.266       .  A
C173        C469   1.481       .  S
C174        C181   1.474       .  S
C176        C533   1.479       .  S
C177        C178   1.397       .  A
C177        C182   1.396       .  A
C177        H187   1.085       .  S
C178        C183   1.476       .  S
C178        C179   1.413       .  A
C179        C180   1.407       .  A
C179        C184   1.507       .  S
C180        C181   1.404       .  A
C180        H185   1.084       .  S
C181        C182   1.418       .  A
C182        C186   1.508       .  S
C183        C188   1.414       .  A
C183        C192   1.395       .  A
C184        H200   1.111       .  S
C184        H201   1.108       .  S
C184        H202   1.111       .  S
C186        H197   1.110       .  S
C186        H198   1.109       .  S
C186        H199   1.107       .  S
C188        C189   1.408       .  A
C188        C193   1.506       .  S
C189        C190   1.402       .  A
C189        H194   1.084       .  S
C190        C191   1.417       .  A
C191        C192   1.395       .  A
C191        C195   1.507       .  S
C192        H196   1.084       .  S
C193        H203   1.111       .  S
C193        H204   1.110       .  S
C193        H205   1.108       .  S
C195        H206   1.111       .  S
C195        H207   1.105       .  S
C195        H208   1.110       .  S
C209        C210   1.403       .  A
C209        C214   1.413       .  A
C209        H219   1.086       .  S
C210        C215   1.490       .  S
C210        C211   1.410       .  A
C211        C212   1.401       .  A
C211        C216   1.509       .  S
C212        C213   1.408       .  A
C212        H217   1.085       .  S
C213        C214   1.422       .  A
C214        C218   1.507       .  S
C215        C220   1.408       .  A
C215        C224   1.400       .  A
C216        H232   1.110       .  S
C216        H233   1.110       .  S
C216        H234   1.111       .  S
C218        H229   1.111       .  S
C218        H230   1.109       .  S
C218        H231   1.111       .  S
C220        C221   1.407       .  A
C220        C225   1.506       .  S
C221        C222   1.412       .  A
C221        H226   1.085       .  S
C222        C223   1.428       .  A
C223        C224   1.407       .  A
C223        C227   1.510       .  S
C224        H228   1.084       .  S
C225        H235   1.111       .  S
C225        H236   1.110       .  S
C225        H237   1.111       .  S
C227        H238   1.110       .  S
C227        H239   1.098       .  S
C227        H240   1.111       .  S
C241        C242   1.399       .  A
C241        C246   1.405       .  A
C241        H251   1.086       .  S
C242        C247   1.489       .  S
C242        C243   1.409       .  A
C243        C244   1.411   1_545  A
C243        C248   1.505       .  S
C244        C245   1.412       .  A
C244        H249   1.084       .  S
C245        C246   1.425   1_565  A
C246        C250   1.509       .  S
C247        C252   1.412       .  A
C247        C256   1.402       .  A
C248        H264   1.110       .  S
C248        H265   1.110       .  S
C248        H266   1.111   1_545  S
C250        H261   1.110       .  S
C250        H262   1.111       .  S
C250        H263   1.110       .  S
C252        C253   1.408       .  A
C252        C257   1.506       .  S
C253        C254   1.407       .  A
C253        H258   1.082       .  S
C254        C255   1.418       .  A
C255        C256   1.406       .  A
C255        C259   1.507       .  S
C256        H260   1.082       .  S
C257        H267   1.111       .  S
C257        H268   1.110       .  S
C257        H269   1.110       .  S
C259        H270   1.110       .  S
C259        H271   1.109       .  S
C259        H272   1.110       .  S
C273        C274   1.400       .  A
C273        C278   1.406   1_565  A
C273        H283   1.084   1_565  S
C274        C279   1.478       .  S
C274        C275   1.406       .  A
C275        C276   1.401       .  A
C275        C280   1.507       .  S
C276        C277   1.411       .  A
C276        H281   1.082       .  S
C277        C278   1.423   1_565  A
C278        C282   1.508       .  S
C279        C284   1.411       .  A
C279        C288   1.399       .  A
C280        H296   1.110       .  S
C280        H297   1.110       .  S
C280        H298   1.111       .  S
C282        H293   1.109       .  S
C282        H294   1.111       .  S
C282        H295   1.110       .  S
C284        C285   1.403       .  A
C284        C289   1.506       .  S
C285        C286   1.402       .  A
C285        H290   1.083       .  S
C286        C287   1.416       .  A
C287        C288   1.402       .  A
C287        C291   1.508       .  S
C288        H292   1.087       .  S
C289        H299   1.111       .  S
C289        H300   1.110   1_565  S
C289        H301   1.110       .  S
C291        H302   1.110       .  S
C291        H303   1.108       .  S
C291        H304   1.110       .  S
C305        C306   1.395   1_544  A
C305        C310   1.403   1_545  A
C305        H315   1.083       .  S
C306        C311   1.478   1_565  S
C306        C307   1.408   1_556  A
C307        C308   1.404       .  A
C307        C312   1.507   1_554  S
C308        C309   1.410       .  A
C308        H313   1.081       .  S
C309        C310   1.429       .  A
C310        C314   1.511   1_565  S
C311        C316   1.411   1_545  A
C311        C320   1.399       .  A
C312        H328   1.110       .  S
C312        H329   1.110       .  S
C312        H330   1.110       .  S
C314        H325   1.111       .  S
C314        H326   1.110       .  S
C314        H327   1.110       .  S
C316        C317   1.402   1_565  A
C316        C321   1.507       .  S
C317        C318   1.403       .  A
C317        H322   1.084       .  S
C318        C319   1.418       .  A
C319        C320   1.402       .  A
C319        C323   1.508       .  S
C320        H324   1.087       .  S
C321        H331   1.111       .  S
C321        H332   1.110       .  S
C321        H333   1.110       .  S
C323        H334   1.111       .  S
C323        H335   1.108       .  S
C323        H336   1.110       .  S
C337        C338   1.401       .  A
C337        C342   1.403       .  A
C337        H347   1.085       .  S
C338        C343   1.474   1_556  S
C338        C339   1.406       .  A
C339        C340   1.398       .  A
C339        C344   1.507   1_556  S
C340        C341   1.407       .  A
C340        H345   1.084       .  S
C341        C342   1.419       .  A
C342        C346   1.510       .  S
C343        C348   1.404       .  A
C343        C352   1.406       .  A
C344        H360   1.110       .  S
C344        H361   1.110       .  S
C344        H362   1.111       .  S
C346        H357   1.110       .  S
C346        H358   1.111       .  S
C346        H359   1.103       .  S
C348        C349   1.393       .  A
C348        C353   1.509       .  S
C349        C350   1.408       .  A
C349        H354   1.084       .  S
C350        C351   1.411       .  A
C351        C352   1.408       .  A
C351        C355   1.505       .  S
C352        H356   1.084       .  S
C353        H363   1.111       .  S
C353        H364   1.110   1_554  S
C353        H365   1.110       .  S
C355        H366   1.111       .  S
C355        H367   1.110       .  S
C355        H368   1.111       .  S
C369        C370   1.397   1_556  A
C369        C374   1.400       .  A
C369        H379   1.086       .  S
C370        C375   1.475       .  S
C370        C371   1.411   1_554  A
C371        C372   1.400       .  A
C371        C376   1.508   1_556  S
C372        C373   1.406       .  A
C372        H377   1.084       .  S
C373        C374   1.421       .  A
C374        C378   1.509       .  S
C375        C380   1.409       .  A
C375        C384   1.401       .  A
C376        H392   1.109       .  S
C376        H393   1.110       .  S
C376        H394   1.111       .  S
C378        H389   1.110       .  S
C378        H390   1.111       .  S
C378        H391   1.107       .  S
C380        C381   1.399       .  A
C380        C385   1.507       .  S
C381        C382   1.405       .  A
C381        H386   1.083       .  S
C382        C383   1.416       .  A
C383        C384   1.400       .  A
C383        C387   1.509       .  S
C384        H388   1.086       .  S
C385        H395   1.111       .  S
C385        H396   1.109       .  S
C385        H397   1.110       .  S
C387        H398   1.110       .  S
C387        H399   1.105       .  S
C387        H400   1.111       .  S
C401        C402   1.401       .  A
C401        C406   1.405       .  A
C401        H411   1.083       .  S
C402        C407   1.469       .  S
C402        C403   1.404       .  A
C403        C404   1.394       .  A
C403        C408   1.508       .  S
C404        C405   1.408       .  A
C404        H409   1.082       .  S
C405        C406   1.417       .  A
C406        C410   1.507       .  S
C407        C412   1.408       .  A
C407        C416   1.398       .  A
C408        H424   1.110       .  S
C408        H425   1.110       .  S
C408        H426   1.111       .  S
C410        H421   1.111       .  S
C410        H422   1.111       .  S
C410        H423   1.109       .  S
C412        C413   1.401       .  A
C412        C417   1.506       .  S
C413        C414   1.403       .  A
C413        H418   1.084       .  S
C414        C415   1.416       .  A
C415        C416   1.397       .  A
C415        C419   1.507       .  S
C416        H420   1.082       .  S
C417        H427   1.110       .  S
C417        H428   1.110       .  S
C417        H429   1.110       .  S
C419        H430   1.111       .  S
C419        H431   1.102       .  S
C419        H432   1.110       .  S
C433        C434   1.401       .  A
C433        C438   1.406       .  A
C433        H443   1.083       .  S
C434        C439   1.488       .  S
C434        C435   1.408       .  A
C435        C436   1.407       .  A
C435        C440   1.506       .  S
C436        C437   1.413       .  A
C436        H441   1.083       .  S
C437        C438   1.423       .  A
C438        C442   1.508       .  S
C439        C444   1.411       .  A
C439        C448   1.401       .  A
C440        H456   1.109       .  S
C440        H457   1.110       .  S
C440        H458   1.111       .  S
C442        H453   1.111       .  S
C442        H454   1.111       .  S
C442        H455   1.110       .  S
C444        C445   1.407       .  A
C444        C449   1.506       .  S
C445        C446   1.409       .  A
C445        H450   1.084       .  S
C446        C447   1.421       .  A
C447        C448   1.405       .  A
C447        C451   1.509       .  S
C448        H452   1.083       .  S
C449        H459   1.111       .  S
C449        H460   1.109       .  S
C449        H461   1.111       .  S
C451        H462   1.110       .  S
C451        H463   1.110       .  S
C451        H464   1.111       .  S
C465        C466   1.400       .  A
C465        C470   1.403       .  A
C465        H475   1.085       .  S
C466        C471   1.488       .  S
C466        C467   1.411       .  A
C467        C468   1.408       .  A
C467        C472   1.506       .  S
C468        C469   1.407       .  A
C468        H473   1.084       .  S
C469        C470   1.421       .  A
C470        C474   1.511       .  S
C471        C476   1.409       .  A
C471        C480   1.402       .  A
C472        H488   1.110       .  S
C472        H489   1.110       .  S
C472        H490   1.111       .  S
C474        H485   1.110       .  S
C474        H486   1.111       .  S
C474        H487   1.103       .  S
C476        C477   1.406       .  A
C476        C481   1.506       .  S
C477        C478   1.411       .  A
C477        H482   1.085       .  S
C478        C479   1.422       .  A
C479        C480   1.407       .  A
C479        C483   1.507       .  S
C480        H484   1.083       .  S
C481        H491   1.111       .  S
C481        H492   1.110       .  S
C481        H493   1.110       .  S
C483        H494   1.111       .  S
C483        H495   1.109       .  S
C483        H496   1.109       .  S
C497        C498   1.402       .  A
C497        C502   1.407       .  A
C497        H507   1.084       .  S
C498        C503   1.485   1_455  S
C498        C499   1.411       .  A
C499        C500   1.404       .  A
C499        C504   1.507       .  S
C500        C501   1.406       .  A
C500        H505   1.085       .  S
C501        C502   1.419       .  A
C502        C506   1.508       .  S
C503        C508   1.410       .  A
C503        C512   1.403       .  A
C504        H520   1.110   1_455  S
C504        H521   1.109   1_455  S
C504        H522   1.111       .  S
C506        H517   1.111       .  S
C506        H518   1.110       .  S
C506        H519   1.107       .  S
C508        C509   1.404       .  A
C508        C513   1.507       .  S
C509        C510   1.406       .  A
C509        H514   1.084       .  S
C510        C511   1.416       .  A
C511        C512   1.407       .  A
C511        C515   1.507       .  S
C512        H516   1.083       .  S
C513        H523   1.111       .  S
C513        H524   1.110       .  S
C513        H525   1.109       .  S
C515        H526   1.110       .  S
C515        H527   1.107       .  S
C515        H528   1.110       .  S
C529        C530   1.399       .  A
C529        C534   1.403       .  A
C529        H539   1.086       .  S
C530        C535   1.484       .  S
C530        C531   1.412       .  A
C531        C532   1.406       .  A
C531        C536   1.506       .  S
C532        C533   1.405       .  A
C532        H537   1.084       .  S
C533        C534   1.420       .  A
C534        C538   1.509       .  S
C535        C540   1.411       .  A
C535        C544   1.399       .  A
C536        H552   1.110       .  S
C536        H553   1.110       .  S
C536        H554   1.111       .  S
C538        H549   1.111       .  S
C538        H550   1.110       .  S
C538        H551   1.105       .  S
C540        C541   1.404       .  A
C540        C545   1.506       .  S
C541        C542   1.407       .  A
C541        H546   1.087       .  S
C542        C543   1.420       .  A
C543        C544   1.405       .  A
C543        C547   1.508       .  S
C544        H548   1.085       .  S
C545        H555   1.111   1_545  S
C545        H556   1.110       .  S
C545        H557   1.110   1_545  S
C547        H558   1.110       .  S
C547        H559   1.111       .  S
C547        H560   1.111       .  S
C561        C562   1.400       .  A
C561        C566   1.399       .  A
C561        H571   1.082       .  S
C562        C567   1.487   1_556  S
C562        C563   1.416       .  A
C563        C564   1.407       .  A
C563        C568   1.507       .  S
C564        C565   1.403       .  A
C564        H569   1.086       .  S
C565        C566   1.415       .  A
C566        C570   1.505       .  S
C567        C572   1.411       .  A
C567        C576   1.405       .  A
C568        H584   1.109   1_556  S
C568        H585   1.110   1_556  S
C568        H586   1.111       .  S
C570        H581   1.111       .  S
C570        H582   1.110       .  S
C570        H583   1.103       .  S
C572        C573   1.400       .  A
C572        C577   1.509   1_554  S
C573        C574   1.407       .  A
C573        H578   1.084       .  S
C574        C575   1.418       .  A
C575        C576   1.407       .  A
C575        C579   1.509       .  S
C576        H580   1.086       .  S
C577        H587   1.110       .  S
C577        H588   1.108       .  S
C577        H589   1.110       .  S
C579        H590   1.110       .  S
C579        H591   1.104       .  S
C579        H592   1.111       .  S
C593        C594   1.404       .  A
C593        C598   1.408       .  A
C593        H603   1.084       .  S
C594        C599   1.483       .  S
C594        C595   1.409       .  A
C595        C596   1.401       .  A
C595        C600   1.507       .  S
C596        C597   1.404       .  A
C596        H601   1.085       .  S
C597        C598   1.417       .  A
C598        C602   1.507       .  S
C599        C604   1.410       .  A
C599        C608   1.403       .  A
C600        H616   1.110       .  S
C600        H617   1.110       .  S
C600        H618   1.111       .  S
C602        H613   1.110       .  S
C602        H614   1.110       .  S
C602        H615   1.107       .  S
C604        C605   1.402       .  A
C604        C609   1.507       .  S
C605        C606   1.405       .  A
C605        H610   1.085       .  S
C606        C607   1.416       .  A
C607        C608   1.406       .  A
C607        C611   1.507       .  S
C608        H612   1.085       .  S
C609        H619   1.111       .  S
C609        H620   1.110       .  S
C609        H621   1.110       .  S
C611        H622   1.110       .  S
C611        H623   1.108       .  S
C611        H624   1.111       .  S
C625        C626   1.402       .  A
C625        C630   1.406       .  A
C625        H635   1.085       .  S
C626        C631   1.488       .  S
C626        C627   1.411       .  A
C627        C628   1.405       .  A
C627        C632   1.506       .  S
C628        C629   1.408       .  A
C628        H633   1.084       .  S
C629        C630   1.419       .  A
C630        C634   1.508       .  S
C631        C636   1.412       .  A
C631        C640   1.402       .  A
C632        H648   1.110       .  S
C632        H649   1.110       .  S
C632        H650   1.111       .  S
C634        H645   1.110       .  S
C634        H646   1.111       .  S
C634        H647   1.110       .  S
C636        C637   1.402       .  A
C636        C641   1.509       .  S
C637        C638   1.408       .  A
C637        H642   1.085       .  S
C638        C639   1.422       .  A
C639        C640   1.410       .  A
C639        C643   1.507       .  S
C640        H644   1.084       .  S
C641        H651   1.111       .  S
C641        H652   1.109       .  S
C641        H653   1.110       .  S
C643        H654   1.109       .  S
C643        H655   1.111       .  S
C643        H656   1.111       .  S
C657        C658   1.403       .  A
C657        C662   1.408       .  A
C657        H667   1.083       .  S
C658        C663   1.487       .  S
C658        C659   1.409       .  A
C659        C660   1.402       .  A
C659        C664   1.508       .  S
C660        C661   1.411       .  A
C660        H665   1.085       .  S
C661        C662   1.419       .  A
C662        C666   1.506       .  S
C663        C668   1.411       .  A
C663        C672   1.403       .  A
C664        H680   1.110       .  S
C664        H681   1.111       .  S
C664        H682   1.111       .  S
C666        H677   1.110       .  S
C666        H678   1.111       .  S
C666        H679   1.110       .  S
C668        C669   1.400       .  A
C668        C673   1.509       .  S
C669        C670   1.406   1_545  A
C669        H674   1.086       .  S
C670        C671   1.420   1_565  A
C671        C672   1.409       .  A
C671        C675   1.507   1_545  S
C672        H676   1.085       .  S
C673        H683   1.111       .  S
C673        H684   1.109       .  S
C673        H685   1.110       .  S
C675        H686   1.110       .  S
C675        H687   1.104       .  S
C675        H688   1.111       .  S
C689        C690   1.395       .  A
C689        C694   1.401       .  A
C689        H699   1.083       .  S
C690        C695   1.469   1_556  S
C690        C691   1.408   1_565  A
C691        C692   1.397       .  A
C691        C696   1.508   1_556  S
C692        C693   1.406   1_545  A
C692        H697   1.085       .  S
C693        C694   1.426       .  A
C694        C698   1.510       .  S
C695        C700   1.406       .  A
C695        C704   1.400       .  A
C696        H712   1.110       .  S
C696        H713   1.110       .  S
C696        H714   1.111       .  S
C698        H709   1.110       .  S
C698        H710   1.111       .  S
C698        H711   1.110       .  S
C700        C701   1.396       .  A
C700        C705   1.507       .  S
C701        C702   1.405       .  A
C701        H706   1.086       .  S
C702        C703   1.419       .  A
C703        C704   1.400       .  A
C703        C707   1.510       .  S
C704        H708   1.084       .  S
C705        H715   1.111       .  S
C705        H716   1.110       .  S
C705        H717   1.110       .  S
C707        H718   1.110       .  S
C707        H719   1.103       .  S
C707        H720   1.111       .  S
C721        C722   1.402   1_545  A
C721        C726   1.402       .  A
C721        H731   1.084       .  S
C722        C727   1.468       .  S
C722        C723   1.408       .  A
C723        C724   1.395       .  A
C723        C728   1.508       .  S
C724        C725   1.402   1_565  A
C724        H729   1.087       .  S
C725        C726   1.413       .  A
C726        C730   1.507       .  S
C727        C732   1.410       .  A
C727        C736   1.396       .  A
C728        H744   1.110       .  S
C728        H745   1.109       .  S
C728        H746   1.111       .  S
C730        H741   1.111       .  S
C730        H742   1.110       .  S
C730        H743   1.107       .  S
C732        C733   1.404       .  A
C732        C737   1.505       .  S
C733        C734   1.402       .  A
C733        H738   1.082       .  S
C734        C735   1.415       .  A
C735        C736   1.393       .  A
C735        C739   1.510       .  S
C736        H740   1.085       .  S
C737        H747   1.111       .  S
C737        H748   1.110   1_565  S
C737        H749   1.110       .  S
C739        H750   1.110       .  S
C739        H751   1.107       .  S
C739        H752   1.111       .  S
C753        C754   1.399       .  A
C753        C758   1.405       .  A
C753        H763   1.084       .  S
C754        C759   1.483   1_455  S
C754        C755   1.410       .  A
C755        C756   1.405       .  A
C755        C760   1.506       .  S
C756        C757   1.407       .  A
C756        H761   1.083       .  S
C757        C758   1.421       .  A
C758        C762   1.508       .  S
C759        C764   1.412       .  A
C759        C768   1.399       .  A
C760        H776   1.110   1_455  S
C760        H777   1.110   1_455  S
C760        H778   1.111       .  S
C762        H773   1.111       .  S
C762        H774   1.110       .  S
C762        H775   1.110       .  S
C764        C765   1.405       .  A
C764        C769   1.506       .  S
C765        C766   1.404       .  A
C765        H770   1.084       .  S
C766        C767   1.420       .  A
C767        C768   1.403       .  A
C767        C771   1.509       .  S
C768        H772   1.085       .  S
C769        H779   1.111       .  S
C769        H780   1.110       .  S
C769        H781   1.110       .  S
C771        H782   1.110       .  S
C771        H783   1.106       .  S
C771        H784   1.111       .  S
C785        C786   1.400       .  A
C785        C790   1.403       .  A
C785        H795   1.085       .  S
C786        C791   1.473       .  S
C786        C787   1.406       .  A
C787        C788   1.398       .  A
C787        C792   1.507       .  S
C788        C789   1.407       .  A
C788        H793   1.087       .  S
C789        C790   1.420       .  A
C790        C794   1.510       .  S
C791        C796   1.403       .  A
C791        C800   1.404       .  A
C792        H808   1.110       .  S
C792        H809   1.110       .  S
C792        H810   1.111       .  S
C794        H805   1.110       .  S
C794        H806   1.110       .  S
C794        H807   1.103       .  S
C796        C797   1.394       .  A
C796        C801   1.508       .  S
C797        C798   1.410       .  A
C797        H802   1.084       .  S
C798        C799   1.414       .  A
C799        C800   1.407       .  A
C799        C803   1.505       .  S
C800        H804   1.085       .  S
C801        H811   1.111       .  S
C801        H812   1.110       .  S
C801        H813   1.110       .  S
C803        H814   1.111       .  S
C803        H815   1.110       .  S
C803        H816   1.109       .  S
C817        C818   1.401       .  A
C817        C822   1.400       .  A
C817        H827   1.086       .  S
C818        C823   1.474       .  S
C818        C819   1.408       .  A
C819        C820   1.400       .  A
C819        C824   1.507       .  S
C820        C821   1.405       .  A
C820        H825   1.085       .  S
C821        C822   1.417       .  A
C822        C826   1.510       .  S
C823        C828   1.408       .  A
C823        C832   1.396       .  A
C824        H840   1.110       .  S
C824        H841   1.110       .  S
C824        H842   1.111       .  S
C826        H837   1.111       .  S
C826        H838   1.110       .  S
C826        H839   1.105       .  S
C828        C829   1.399       .  A
C828        C833   1.508       .  S
C829        C830   1.409       .  A
C829        H834   1.086       .  S
C830        C831   1.426       .  A
C831        C832   1.402       .  A
C831        C835   1.509       .  S
C832        H836   1.089       .  S
C833        H843   1.111       .  S
C833        H844   1.110       .  S
C833        H845   1.110       .  S
C835        H846   1.111       .  S
C835        H847   1.110       .  S
C835        H848   1.110       .  S
C849        C850   1.398       .  A
C849        C854   1.399       .  A
C849        H859   1.085       .  S
C850        C855   1.470       .  S
C850        C851   1.410       .  A
C851        C852   1.399       .  A
C851        C856   1.508       .  S
C852        C853   1.403       .  A
C852        H857   1.084       .  S
C853        C854   1.418       .  A
C854        C858   1.509       .  S
C855        C860   1.408       .  A
C855        C864   1.394   1_556  A
C856        H872   1.110       .  S
C856        H873   1.109       .  S
C856        H874   1.111       .  S
C858        H869   1.110       .  S
C858        H870   1.111       .  S
C858        H871   1.108       .  S
C860        C861   1.402   1_556  A
C860        C865   1.507       .  S
C861        C862   1.408       .  A
C861        H866   1.082       .  S
C862        C863   1.425       .  A
C863        C864   1.399       .  A
C863        C867   1.510       .  S
C864        H868   1.086       .  S
C865        H875   1.110       .  S
C865        H876   1.110       .  S
C865        H877   1.109       .  S
C867        H878   1.111       .  S
C867        H879   1.110       .  S
C867        H880   1.109       .  S
C881        C882   1.399       .  A
C881        C886   1.408       .  A
C881        H891   1.085       .  S
C882        C887   1.486       .  S
C882        C883   1.411       .  A
C883        C884   1.402       .  A
C883        C888   1.508       .  S
C884        C885   1.409       .  A
C884        H889   1.085       .  S
C885        C886   1.425       .  A
C886        C890   1.508   1_565  S
C887        C892   1.411       .  A
C887        C896   1.401       .  A
C888        H904   1.110       .  S
C888        H905   1.111       .  S
C888        H906   1.111       .  S
C890        H901   1.110       .  S
C890        H902   1.111       .  S
C890        H903   1.110       .  S
C892        C893   1.404       .  A
C892        C897   1.507       .  S
C893        C894   1.406       .  A
C893        H898   1.084       .  S
C894        C895   1.419       .  A
C895        C896   1.406       .  A
C895        C899   1.508       .  S
C896        H900   1.085       .  S
C897        H907   1.111       .  S
C897        H908   1.110       .  S
C897        H909   1.110       .  S
C899        H910   1.111       .  S
C899        H911   1.110       .  S
C899        H912   1.108       .  S
C913        C914   1.404       .  A
C913        C918   1.411       .  A
C913        H923   1.083       .  S
C914        C919   1.484       .  S
C914        C915   1.407       .  A
C915        C916   1.399       .  A
C915        C920   1.509       .  S
C916        C917   1.412       .  A
C916        H921   1.083       .  S
C917        C918   1.421       .  A
C918        C922   1.506       .  S
C919        C924   1.410       .  A
C919        C928   1.400       .  A
C920        H936   1.110       .  S
C920        H937   1.109       .  S
C920        H938   1.111       .  S
C922        H933   1.111       .  S
C922        H934   1.110       .  S
C922        H935   1.107       .  S
C924        C925   1.407       .  A
C924        C929   1.506       .  S
C925        C926   1.407       .  A
C925        H930   1.084       .  S
C926        C927   1.420       .  A
C927        C928   1.403       .  A
C927        C931   1.510       .  S
C928        H932   1.085       .  S
C929        H939   1.111       .  S
C929        H940   1.110       .  S
C929        H941   1.110       .  S
C931        H942   1.111       .  S
C931        H943   1.105       .  S
C931        H944   1.110       .  S
