geometry optimzed in LAMMPS
_audit_creation_date              2020-12-01 
_audit_creation_method            'lammps2cif' 
_symmetry_space_group_name_H-M    'P1' 
_symmetry_Int_Tables_number       1 
_symmetry_cell_setting            triclinic 
loop_ 
_symmetry_equiv_pos_as_xyz 
  x,y,z 
_cell_length_a                    41.95670131 
_cell_length_b                    34.427852204155876 
_cell_length_c                    40.55093191318372 
_cell_angle_alpha                 89.98527758851907 
_cell_angle_beta                  90.00980681983953 
_cell_angle_gamma                 89.9842900081023 
loop_ 
_atom_site_label 
_atom_site_type_symbol 
_atom_site_fract_x 
_atom_site_fract_y 
_atom_site_fract_z 
_atom_site_charge 
O1          O  0.41928836  0.80276463  0.31175205    -0.83600
C2          C  0.31305369  0.89133232  0.33705589     0.95800
O3          O  0.33722910  0.87883508  0.35222553    -0.72700
O4          O  0.38344368  0.82891711  0.36571414    -0.76300
Al5        Al  0.37843293  0.87153436  0.33404523     1.49000
C6          C  0.37205367  0.79468765  0.36558853     0.91000
O7          O  0.33519000  0.77425943  0.28088130    -0.82500
O8          O  0.34837454  0.83115190  0.23591961    -0.76100
Al9        Al  0.37586439  0.79354152  0.29714473     1.90100
O10         O  0.30444566  0.82536013  0.28586042    -0.75100
O11         O  0.36318475  0.90069768  0.25962481    -0.75000
O12         O  0.31399869  0.89538740  0.30594410    -0.80600
O13         O  0.37682639  0.92052774  0.30907706    -0.78800
O14         O  0.36328074  0.84234842  0.30163323    -1.15000
O15         O  0.42074420  0.86602696  0.31897142    -0.74200
C16         C  0.43500808  0.83405530  0.31497419     0.96500
C17         C  0.30782049  0.78991668  0.27971903     0.92900
Al18       Al  0.33497346  0.86192308  0.27392802     1.55600
O19         O  0.36170057  0.78012618  0.33930281    -0.78800
C20         C  0.37400548  0.92680244  0.27822841     0.97100
C21         C  0.37204085  0.80888034  0.23099800     0.92000
O22         O  0.39106822  0.80167106  0.25415694    -0.84100
O23         O  0.61738180  0.80205414  0.25386099    -0.83600
C24         C  0.69523150  0.89074263  0.33773114     0.95800
O25         O  0.69428937  0.89517763  0.30664753    -0.72700
O26         O  0.70387499  0.82541720  0.28596717    -0.76300
Al27       Al  0.67334170  0.86208461  0.27428530     1.49000
C28         C  0.70063396  0.78995447  0.27983380     0.91000
O29         O  0.64634872  0.77946524  0.33894578    -0.82500
O30         O  0.58752570  0.86577494  0.31914325    -0.76100
Al31       Al  0.63242634  0.79342379  0.29682530     1.90100
O32         O  0.62457491  0.82807038  0.36559332    -0.75100
O33         O  0.63149034  0.92033958  0.30989063    -0.75000
O34         O  0.67105017  0.87798197  0.35273981    -0.80600
O35         O  0.64506536  0.90104945  0.26027098    -0.78800
O36         O  0.64500892  0.84217110  0.30176302    -1.15000
O37         O  0.66008449  0.83171288  0.23597665    -0.74200
C38         C  0.63645902  0.80947266  0.23081876     0.96500
C39         C  0.63578286  0.79376643  0.36523726     0.92900
Al40       Al  0.62981241  0.87101054  0.33437697     1.55600
O41         O  0.67325888  0.77425549  0.28068120    -0.78800
C42         C  0.63417701  0.92692940  0.27908329     0.97100
C43         C  0.57323065  0.83388558  0.31482143     0.92000
O44         O  0.58892091  0.80260249  0.31127478    -0.84100
O45         O  0.58881860  0.70228942  0.06137078    -0.83600
C46         C  0.69587893  0.61473578  0.08724958     0.95800
O47         O  0.67165372  0.62730494  0.10227644    -0.72700
O48         O  0.62524164  0.67700287  0.11555650    -0.76300
Al49       Al  0.63032375  0.63419696  0.08417571     1.49000
C50         C  0.63616605  0.71145234  0.11515784     0.91000
O51         O  0.67265539  0.73158258  0.03023135    -0.82500
O52         O  0.65996702  0.67397815  0.48583393    -0.76100
Al53       Al  0.63212323  0.71189379  0.04665399     1.90100
O54         O  0.70376594  0.68087704  0.03573145    -0.75100
O55         O  0.64577139  0.60457889  0.00989728    -0.75000
O56         O  0.69504182  0.61076349  0.05613056    -0.80600
O57         O  0.63206422  0.58510205  0.05944357    -0.78800
O58         O  0.64516799  0.66327284  0.05155305    -1.15000
O59         O  0.58782576  0.63915741  0.06934527    -0.74200
C60         C  0.57331929  0.67091828  0.06508304     0.96500
C61         C  0.70016306  0.71624455  0.02937466     0.92900
Al62       Al  0.67364670  0.64379445  0.02398769     1.55600
O63         O  0.64614276  0.72606489  0.08872635    -0.78800
C64         C  0.63487793  0.57864624  0.02862992     0.97100
C65         C  0.63602073  0.69568895  0.48064097     0.92000
O66         O  0.61694926  0.70300130  0.50372817    -0.84100
O67         O  0.39087081  0.70303675  0.50400082    -0.83600
C68         C  0.31284922  0.61341574  0.08718832     0.95800
O69         O  0.31359593  0.60984650  0.05604169    -0.72700
O70         O  0.30429836  0.68024511  0.03655542    -0.76300
Al71       Al  0.33450108  0.64351291  0.02413446     1.49000
C72         C  0.30771551  0.71564103  0.03020841     0.91000
O73         O  0.36213599  0.72514072  0.08922389    -0.82500
O74         O  0.42064617  0.63875889  0.06907724    -0.76100
Al75       Al  0.37593676  0.71145877  0.04705487     1.90100
O76         O  0.38321981  0.67595697  0.11576848    -0.75100
O77         O  0.37666684  0.58458820  0.05867086    -0.75000
O78         O  0.33705399  0.62591640  0.10227146    -0.80600
O79         O  0.36243075  0.60472076  0.00944352    -0.78800
O80         O  0.36310215  0.66275106  0.05169076    -1.15000
O81         O  0.34770249  0.67437861  0.48611897    -0.74200
C82         C  0.37156387  0.69624919  0.48101066     0.96500
C83         C  0.37225128  0.71042182  0.11555032     0.92900
Al84       Al  0.37824880  0.63337283  0.08399952     1.55600
O85         O  0.33518053  0.73111336  0.03102924    -0.78800
C86         C  0.37361312  0.57857378  0.02778951     0.97100
C87         C  0.43501419  0.67061914  0.06499068     0.92000
O88         O  0.41937859  0.70193118  0.06146047    -0.84100
O89         O  0.08890679  0.80245554  0.43833728    -0.83600
C90         C  0.19503591  0.89070753  0.41054411     0.95800
O91         O  0.17083339  0.87776291  0.39571333    -0.72700
O92         O  0.12464001  0.82735757  0.38341823    -0.76300
Al93       Al  0.12973187  0.87067780  0.41438852     1.49000
C94         C  0.13565253  0.79291971  0.38403077     0.91000
O95         O  0.17331853  0.77444978  0.46870148    -0.82500
O96         O  0.16090907  0.83205347  0.01287359    -0.76100
Al97       Al  0.13243956  0.79346362  0.45260362     1.90100
O98         O  0.20406237  0.82530854  0.46226100    -0.75100
O99         O  0.14564815  0.90106044  0.48831794    -0.75000
O100        O  0.19428133  0.89516425  0.44160587    -0.80600
O101        O  0.13137460  0.92019376  0.43882386    -0.78800
O102        O  0.14512105  0.84209425  0.44707303    -1.15000
O103        O  0.08750268  0.86547453  0.42979839    -0.74200
C104        C  0.07322376  0.83369213  0.43463218     0.96500
C105        C  0.20073178  0.79007434  0.46928189     0.92900
Al106      Al  0.17373422  0.86213504  0.47418773     1.55600
O107        O  0.14597080  0.77873525  0.41049946    -0.78800
C108        C  0.13445366  0.92685061  0.46961194     0.97100
C109        C  0.13711233  0.81024204  0.01846073     0.92000
O110        O  0.11773685  0.80293076  0.99563501    -0.84100
O111        O  0.89047977  0.80243137  0.99554237    -0.83600
C112        C  0.81341047  0.89129189  0.41130247     0.95800
O113        O  0.81424168  0.89574993  0.44237768    -0.72700
O114        O  0.80418031  0.82588953  0.46269790    -0.76300
Al115      Al  0.83471071  0.86236957  0.47479034     1.49000
C116        C  0.80741768  0.79051214  0.46921035     0.91000
O117        O  0.86209359  0.77976374  0.41029400    -0.82500
O118        O  0.92085932  0.86589488  0.43078196    -0.76100
Al119      Al  0.87571221  0.79371022  0.45251936     1.90100
O120        O  0.88413367  0.82832748  0.38382093    -0.75100
O121        O  0.87703182  0.92057445  0.43980223    -0.75000
O122        O  0.83765511  0.87855016  0.39637956    -0.80600
O123        O  0.86298479  0.90097717  0.48919809    -0.78800
O124        O  0.86321947  0.84245541  0.44750561    -1.15000
O125        O  0.84753873  0.83182208  0.01314006    -0.74200
C126        C  0.87123142  0.80973696  0.01845351     0.96500
C127        C  0.87296244  0.79397549  0.38408622     0.92900
Al128      Al  0.87875232  0.87132474  0.41511141     1.55600
O129        O  0.83477362  0.77473914  0.46842463    -0.78800
C130        C  0.87413080  0.92692709  0.47063967     0.97100
C131        C  0.93506477  0.83395982  0.43516898     0.92000
O132        O  0.91930696  0.80269917  0.43838775    -0.84100
O133        O  0.91981365  0.70333575  0.18737487    -0.83600
C134        C  0.81355157  0.61479956  0.16155196     0.95800
O135        O  0.83778274  0.62737444  0.14656134    -0.72700
O136        O  0.88377802  0.67764757  0.13368265    -0.76300
Al137      Al  0.87893264  0.63470747  0.16495857     1.49000
C138        C  0.87230602  0.71185019  0.13403648     0.91000
O139        O  0.83586751  0.73172504  0.21919902    -0.82500
O140        O  0.84911947  0.67423981  0.26328740    -0.76100
Al141      Al  0.87647570  0.71242027  0.20240047     1.90100
O142        O  0.80511789  0.68084690  0.21326987    -0.75100
O143        O  0.86344006  0.60504106  0.23905313    -0.75000
O144        O  0.81427291  0.61097334  0.19270453    -0.80600
O145        O  0.87744981  0.58550595  0.18965169    -0.78800
O146        O  0.86378307  0.66367379  0.19750131    -1.15000
O147        O  0.92119102  0.64010006  0.18011811    -0.74200
C148        C  0.93549330  0.67201921  0.18408553     0.96500
C149        C  0.80846586  0.71610384  0.22008599     0.92900
Al150      Al  0.83543813  0.64400732  0.22500211     1.55600
O151        O  0.86209033  0.72633396  0.16042518    -0.78800
C152        C  0.87451991  0.57910949  0.22046429     0.97100
C153        C  0.87303718  0.69607034  0.26839574     0.92000
O154        O  0.89195308  0.70355576  0.24520749    -0.84100
O155        O  0.11714199  0.70214096  0.24531691    -0.83600
C156        C  0.19540201  0.61398704  0.16139509     0.95800
O157        O  0.19455274  0.60975657  0.19251339    -0.72700
O158        O  0.20402748  0.67939802  0.21401554    -0.76300
Al159      Al  0.17337100  0.64255701  0.22501961     1.49000
C160        C  0.20057228  0.71480494  0.22035984     0.91000
O161        O  0.14701295  0.72612189  0.16068177    -0.82500
O162        O  0.08784118  0.63964798  0.17955452    -0.76100
Al163      Al  0.13263672  0.71151705  0.20261236     1.90100
O164        O  0.12542386  0.67773814  0.13355733    -0.75100
O165        O  0.13156377  0.58480637  0.18867785    -0.75000
O166        O  0.17137159  0.62718491  0.14641152    -0.80600
O167        O  0.14497504  0.60356028  0.23848919    -0.78800
O168        O  0.14527968  0.66282190  0.19740680    -1.15000
O169        O  0.15975362  0.67246075  0.26348259    -0.74200
C170        C  0.13599991  0.69454711  0.26853197     0.96500
C171        C  0.13672752  0.71201909  0.13416999     0.92900
Al172      Al  0.13018275  0.63436836  0.16453092     1.55600
O173        O  0.17317189  0.73038294  0.21940630    -0.78800
C174        C  0.13412974  0.57793061  0.21944563     0.97100
C175        C  0.07360495  0.67155834  0.18390330     0.92000
O176        O  0.08933710  0.70275331  0.18754414    -0.84100
O177        O  0.58901845  0.30218517  0.43742094    -0.83600
C178        C  0.69471993  0.39108738  0.41058276     0.95800
O179        O  0.67045624  0.37834687  0.39570097    -0.72700
O180        O  0.62407180  0.32819269  0.38323223    -0.76300
Al181      Al  0.62946058  0.37100237  0.41456591     1.49000
C182        C  0.63541245  0.29392605  0.38332433     0.91000
O183        O  0.67352160  0.27412337  0.46768093    -0.82500
O184        O  0.66080039  0.33106375  0.01230364    -0.76100
Al185      Al  0.63261023  0.29321555  0.45165061     1.90100
O186        O  0.70404708  0.32522540  0.46171755    -0.75100
O187        O  0.64554141  0.40040917  0.48864800    -0.75000
O188        O  0.69406465  0.39520107  0.44169414    -0.80600
O189        O  0.63129818  0.42010406  0.43932990    -0.78800
O190        O  0.64508382  0.34199529  0.44679243    -1.15000
O191        O  0.58742123  0.36546789  0.43040423    -0.74200
C192        C  0.57323415  0.33347936  0.43451990     0.96500
C193        C  0.70085512  0.28992759  0.46851470     0.92900
Al194      Al  0.67365562  0.36174048  0.47404873     1.55600
O195        O  0.64632431  0.27952369  0.40944918    -0.78800
C196        C  0.63444096  0.42643950  0.47013228     0.97100
C197        C  0.63709120  0.30896815  0.01748815     0.92000
O198        O  0.61778004  0.30189724  0.99458706    -0.84100
O199        O  0.39099864  0.30264190  0.99498057    -0.83600
C200        C  0.31308848  0.39002933  0.41032448     0.95800
O201        O  0.31404674  0.39478563  0.44134622    -0.72700
O202        O  0.30448724  0.32509667  0.46236826    -0.76300
Al203      Al  0.33488453  0.36197371  0.47387741     1.49000
C204        C  0.30782960  0.28986219  0.46938878     0.91000
O205        O  0.36225078  0.27855167  0.41000772    -0.82500
O206        O  0.42080449  0.36531834  0.42921980    -0.76100
Al207      Al  0.37600779  0.29319341  0.45207539     1.90100
O208        O  0.38373536  0.32715638  0.38305653    -0.75100
O209        O  0.37674507  0.41994613  0.43799477    -0.75000
O210        O  0.33726166  0.37711941  0.39538992    -0.80600
O211        O  0.36306918  0.40094933  0.48767415    -0.78800
O212        O  0.36330058  0.34183403  0.44663084    -1.15000
O213        O  0.34804331  0.33213933  0.01239130    -0.74200
C214        C  0.37179265  0.31023473  0.01787793     0.96500
C215        C  0.37275611  0.29274889  0.38361737     0.92900
Al216      Al  0.37849877  0.37037776  0.41385965     1.55600
O217        O  0.33521533  0.27415718  0.46850779    -0.78800
C218        C  0.37399200  0.42668859  0.46877078     0.97100
C219        C  0.43509799  0.33348529  0.43393708     0.92000
O220        O  0.41943365  0.30222538  0.43754523    -0.84100
O221        O  0.41896058  0.20371855  0.18649426    -0.83600
C222        C  0.31322847  0.11454444  0.16110694     0.95800
O223        O  0.33724320  0.12748060  0.14595928    -0.72700
O224        O  0.38319460  0.17784216  0.13283559    -0.76300
Al225      Al  0.37840206  0.13484530  0.16409644     1.49000
C226        C  0.37160085  0.21197276  0.13315166     0.91000
O227        O  0.33474846  0.23129172  0.21823973    -0.82500
O228        O  0.34874902  0.17383580  0.26255609    -0.76100
Al229      Al  0.37551104  0.21248722  0.20146861     1.90100
O230        O  0.30440886  0.17993054  0.21300828    -0.75100
O231        O  0.36373728  0.10499773  0.23825247    -0.75000
O232        O  0.31424140  0.11029888  0.19220718    -0.80600
O233        O  0.37706844  0.08549004  0.18866190    -0.78800
O234        O  0.36319836  0.16363073  0.19671163    -1.15000
O235        O  0.42061182  0.14046846  0.17915390    -0.74200
C236        C  0.43477506  0.17248849  0.18312342     0.96500
C237        C  0.30749524  0.21530386  0.21954232     0.92900
Al238      Al  0.33521000  0.14353886  0.22441354     1.55600
O239        O  0.36097778  0.22622351  0.15945336    -0.78800
C240        C  0.37444146  0.07901273  0.21949712     0.97100
C241        C  0.37246397  0.19598179  0.26750283     0.92000
O242        O  0.39111192  0.20390946  0.24420425    -0.84100
O243        O  0.61653204  0.20452296  0.24404474    -0.83600
C244        C  0.69489785  0.11452639  0.16149905     0.95800
O245        O  0.69405380  0.11082882  0.19264719    -0.72700
O246        O  0.70325843  0.18090898  0.21259999    -0.76300
Al247      Al  0.67286327  0.14422380  0.22456825     1.49000
C248        C  0.69992749  0.21629208  0.21897215     0.91000
O249        O  0.64648507  0.22563709  0.15913908    -0.82500
O250        O  0.58712539  0.14007695  0.17945248    -0.76100
Al251      Al  0.63200829  0.21252368  0.20116885     1.90100
O252        O  0.62472461  0.17677802  0.13276542    -0.75100
O253        O  0.63085100  0.08543569  0.18965891    -0.75000
O254        O  0.67063887  0.12672694  0.14632319    -0.80600
O255        O  0.64481530  0.10532884  0.23897210    -0.78800
O256        O  0.64456813  0.16363458  0.19683609    -1.15000
O257        O  0.65914491  0.17487698  0.26241787    -0.74200
C258        C  0.63535838  0.19696407  0.26730370     0.96500
C259        C  0.63631055  0.21090742  0.13285245     0.92900
Al260      Al  0.62944699  0.13430696  0.16450581     1.55600
O261        O  0.67256667  0.23195196  0.21773698    -0.78800
C262        C  0.63379466  0.07923143  0.22050278     0.97100
C263        C  0.57291837  0.17213592  0.18313938     0.92000
O264        O  0.58868907  0.20338940  0.18625718    -0.84100
O265        O  0.91872970  0.30262671  0.31105068    -0.83600
C266        C  0.81282559  0.39175221  0.33731786     0.95800
O267        O  0.83686722  0.37878335  0.35246023    -0.72700
O268        O  0.88308196  0.32859075  0.36561441    -0.76300
Al269      Al  0.87810983  0.37138242  0.33425869     1.49000
C270        C  0.87184932  0.29431833  0.36535058     0.91000
O271        O  0.83414918  0.27500462  0.28087586    -0.82500
O272        O  0.84743781  0.33217153  0.23595460    -0.76100
Al273      Al  0.87512372  0.29377517  0.29682231     1.90100
O274        O  0.80375285  0.32644331  0.28588217    -0.75100
O275        O  0.86318719  0.40124101  0.25997828    -0.75000
O276        O  0.81393607  0.39626179  0.30626926    -0.80600
O277        O  0.87675361  0.42050267  0.30962997    -0.78800
O278        O  0.86277870  0.34260146  0.30168918    -1.15000
O279        O  0.92040241  0.36573775  0.31916671    -0.74200
C280        C  0.93455609  0.33377085  0.31471918     0.96500
C281        C  0.80686569  0.29094457  0.27975681     0.92900
Al282      Al  0.83455967  0.36274594  0.27411511     1.55600
O283        O  0.86133548  0.27991730  0.33906523    -0.78800
C284        C  0.87421886  0.42700510  0.27880232     0.97100
C285        C  0.87095284  0.30981974  0.23077097     0.92000
O286        O  0.89003490  0.30224772  0.25378423    -0.84100
O287        O  0.11709295  0.30060664  0.25501528    -0.83600
C288        C  0.19455060  0.39098246  0.33764700     0.95800
O289        O  0.19357813  0.39496759  0.30655134    -0.72700
O290        O  0.20348363  0.32484425  0.28716934    -0.76300
Al291      Al  0.17295136  0.36114671  0.27473937     1.49000
C292        C  0.20039231  0.28941683  0.28086797     0.91000
O293        O  0.14625497  0.27995997  0.34026315    -0.82500
O294        O  0.08699571  0.36533963  0.31923862    -0.76100
Al295      Al  0.13218084  0.29284666  0.29805216     1.90100
O296        O  0.12419121  0.32884450  0.36632204    -0.75100
O297        O  0.13073108  0.41995312  0.30914292    -0.75000
O298        O  0.17033071  0.37875065  0.35287468    -0.80600
O299        O  0.14474986  0.39955615  0.25998837    -0.78800
O300        O  0.14455841  0.34174290  0.30234636    -1.15000
O301        O  0.15981300  0.33016684  0.23693888    -0.74200
C302        C  0.13610523  0.30804808  0.23191499     0.96500
C303        C  0.13578187  0.29471909  0.36640657     0.92900
Al304      Al  0.12918808  0.37117617  0.33448201     1.55600
O305        O  0.17308625  0.27354752  0.28201092    -0.78800
C306        C  0.13377206  0.42586834  0.27825773     0.97100
C307        C  0.07280692  0.33330639  0.31536394     0.92000
O308        O  0.08860400  0.30201132  0.31240554    -0.84100
O309        O  0.08906911  0.20300265  0.06239477    -0.83600
C310        C  0.19525744  0.11433674  0.08773711     0.95800
O311        O  0.17106185  0.12684854  0.10284366    -0.72700
O312        O  0.12481488  0.17671237  0.11614092    -0.76300
Al313      Al  0.12988419  0.13414555  0.08455142     1.49000
C314        C  0.13610263  0.21098597  0.11605568     0.91000
O315        O  0.17330941  0.23155902  0.03151413    -0.82500
O316        O  0.16011957  0.17464180  0.48672123    -0.76100
Al317      Al  0.13252652  0.21220736  0.04775916     1.90100
O318        O  0.20395008  0.18041792  0.03670295    -0.75100
O319        O  0.14530175  0.10511298  0.01015989    -0.75000
O320        O  0.19438017  0.11034234  0.05662404    -0.80600
O321        O  0.13152571  0.08515713  0.05952788    -0.78800
O322        O  0.14510454  0.16338969  0.05225007    -1.15000
O323        O  0.08757385  0.13970412  0.06940759    -0.74200
C324        C  0.07331796  0.17172666  0.06562159     0.96500
C325        C  0.20069508  0.21587020  0.03051394     0.92900
Al326      Al  0.17347067  0.14386360  0.02462553     1.55600
O327        O  0.14663843  0.22560200  0.08987202    -0.78800
C328        C  0.13439851  0.07896241  0.02866920     0.97100
C329        C  0.13637891  0.19676553  0.48176922     0.92000
O330        O  0.11730972  0.20394163  0.50486587    -0.84100
O331        O  0.89123158  0.20353713  0.50390562    -0.83600
C332        C  0.81287386  0.11510373  0.08768778     0.95800
O333        O  0.81376716  0.11082856  0.05659566    -0.72700
O334        O  0.80457668  0.18074321  0.03604630    -0.76300
Al335      Al  0.83490857  0.14391535  0.02432357     1.49000
C336        C  0.80793443  0.21610834  0.02957349     0.91000
O337        O  0.86177898  0.22659933  0.08878598    -0.82500
O338        O  0.92070249  0.14018679  0.06956297    -0.76100
Al339      Al  0.87599073  0.21246121  0.04680915     1.90100
O340        O  0.88313626  0.17782593  0.11566368    -0.75100
O341        O  0.87682343  0.08567937  0.05991756    -0.75000
O342        O  0.83705674  0.12784574  0.10266378    -0.80600
O343        O  0.86304148  0.10487965  0.01030638    -0.78800
O344        O  0.86327409  0.16373671  0.05180407    -1.15000
O345        O  0.84834089  0.17417577  0.48607899    -0.74200
C346        C  0.87210899  0.19616790  0.48086265     0.96500
C347        C  0.87180922  0.21207191  0.11522357     0.92900
Al348      Al  0.87830539  0.13491138  0.08447743     1.55600
O349        O  0.83534531  0.23169036  0.03033706    -0.78800
C350        C  0.87407841  0.07909274  0.02911598     0.97100
C351        C  0.93504525  0.17206707  0.06540716     0.92000
O352        O  0.91938223  0.20333261  0.06167170    -0.84100
C353        C  0.98749372  0.13761926  0.06836209    -0.15100
C354        C  0.97042297  0.17258436  0.06544359     0.07000
C355        C  0.98752031  0.20758121  0.06267897    -0.15100
C356        C  0.02095414  0.20749652  0.06273158    -0.15100
C357        C  0.03794284  0.17241188  0.06553734     0.07000
C358        C  0.02076390  0.13753318  0.06839989    -0.15100
H359        H  0.97513779  0.11012468  0.07055566     0.11000
H360        H  0.97507715  0.23502284  0.56049808     0.11000
H361        H  0.03348193  0.23487597  0.56058565     0.11000
H362        H  0.03303356  0.10997672  0.07063003     0.11000
C363        C  0.15374819  0.29406422  0.17428893    -0.15100
C364        C  0.13329760  0.28606347  0.20074272     0.07000
C365        C  0.11366044  0.25287657  0.19921248    -0.15100
C366        C  0.11503709  0.22777293  0.17212953    -0.15100
C367        C  0.13577219  0.23563249  0.14587960     0.07000
C368        C  0.15481489  0.26928063  0.14707715    -0.15100
H369        H  0.16947632  0.31899290  0.17495197     0.11000
H370        H  0.09799684  0.24550579  0.21949492     0.11000
H371        H  0.09976253  0.20242423  0.17162009     0.11000
H372        H  0.17091669  0.27625390  0.12705839     0.11000
C373        C  0.11500889  0.27763285  0.42255887    -0.15100
C374        C  0.13590760  0.27027983  0.39634881     0.07000
C375        C  0.15544619  0.23704426  0.39753391    -0.15100
C376        C  0.15446800  0.21193853  0.42452737    -0.15100
C377        C  0.13366520  0.21922647  0.45082154     0.07000
C378        C  0.11375106  0.25221183  0.44945328    -0.15100
H379        H  0.09942519  0.30271285  0.42209042     0.11000
H380        H  0.17176549  0.23054146  0.37758910     0.11000
H381        H  0.17048377  0.18727054  0.42511744     0.11000
H382        H  0.09787281  0.25910792  0.46967659     0.11000
C383        C  0.89450138  0.25579617  0.19750571    -0.15100
C384        C  0.87350047  0.28768155  0.19959560     0.07000
C385        C  0.85175186  0.29399125  0.17387186    -0.15100
C386        C  0.85096617  0.26896731  0.14675806    -0.15100
C387        C  0.87156016  0.23674058  0.14501057     0.07000
C388        C  0.89337749  0.23043512  0.17060395    -0.15100
H389        H  0.91120227  0.24966752  0.21719736     0.11000
H390        H  0.83487854  0.31776466  0.17502145     0.11000
H391        H  0.83394920  0.27460925  0.12724240     0.11000
H392        H  0.90981240  0.20619588  0.16962936     0.11000
C393        C  0.85219108  0.23667936  0.39672102    -0.15100
C394        C  0.87217243  0.26946900  0.39511527     0.07000
C395        C  0.89384059  0.27615163  0.42080987    -0.15100
C396        C  0.89527284  0.25069203  0.44770013    -0.15100
C397        C  0.87475391  0.21831942  0.44965294     0.07000
C398        C  0.85330842  0.21156140  0.42376144    -0.15100
H399        H  0.83532877  0.23066059  0.37715062     0.11000
H400        H  0.90984486  0.30081152  0.41997183     0.11000
H401        H  0.91173509  0.25716170  0.46752352     0.11000
H402        H  0.83683813  0.18737367  0.42475606     0.11000
C403        C  0.98710484  0.36725665  0.32076570    -0.15100
C404        C  0.96992683  0.33301189  0.31450706     0.07000
C405        C  0.98691277  0.29852109  0.30833505    -0.15100
C406        C  0.02036132  0.29838002  0.30855317    -0.15100
C407        C  0.03743790  0.33273541  0.31492012     0.07000
C408        C  0.02035378  0.36711967  0.32096788    -0.15100
H409        H  0.97484985  0.39433633  0.32566595     0.11000
H410        H  0.97437293  0.27166886  0.30335001     0.11000
H411        H  0.03282924  0.27143621  0.30370383     0.11000
H412        H  0.03268382  0.39410509  0.32601119     0.11000
C413        C  0.75343234  0.10483504  0.09025749    -0.15100
C414        C  0.78296082  0.10751144  0.10654183     0.07000
C415        C  0.78311152  0.10791800  0.14127594    -0.15100
C416        C  0.75450553  0.10747000  0.15919633    -0.15100
C417        C  0.72494088  0.10710516  0.14287110     0.07000
C418        C  0.72478890  0.10489760  0.10818434    -0.15100
H419        H  0.75236497  0.10486635  0.06357312     0.11000
H420        H  0.80537192  0.11018804  0.15465882     0.11000
H421        H  0.75554558  0.10967400  0.18581788     0.11000
H422        H  0.70245205  0.10478302  0.09479636     0.11000
C423        C  0.75758612  0.21866350  0.23282429    -0.15100
C424        C  0.72763719  0.23713187  0.23225012     0.07000
C425        C  0.72358933  0.27226313  0.24911976    -0.15100
C426        C  0.74903914  0.28860766  0.26627960    -0.15100
C427        C  0.77900099  0.27014225  0.26679317     0.07000
C428        C  0.78299877  0.23496395  0.25000703    -0.15100
H429        H  0.76130402  0.19121081  0.22034951     0.11000
H430        H  0.70061856  0.28661522  0.24972547     0.11000
H431        H  0.74537315  0.31608857  0.27872619     0.11000
H432        H  0.80595512  0.22057892  0.24938106     0.11000
C433        C  0.48717399  0.13846422  0.17820105    -0.15100
C434        C  0.47011555  0.17310320  0.18321190     0.07000
C435        C  0.48718517  0.20775809  0.18821590    -0.15100
C436        C  0.52061464  0.20765013  0.18821853    -0.15100
C437        C  0.53757750  0.17288527  0.18322207     0.07000
C438        C  0.52041371  0.13835560  0.17821253    -0.15100
H439        H  0.47483546  0.11123811  0.17422221     0.11000
H440        H  0.47472971  0.23491320  0.19216755     0.11000
H441        H  0.53315823  0.23473585  0.19217715     0.11000
H442        H  0.53266911  0.11106514  0.17423953     0.11000
C443        C  0.28338614  0.10582369  0.10778503    -0.15100
C444        C  0.28328340  0.10681541  0.14249784     0.07000
C445        C  0.25379549  0.10566311  0.15893477    -0.15100
C446        C  0.22513494  0.10591649  0.14110869    -0.15100
C447        C  0.22523064  0.10678475  0.10639124     0.07000
C448        C  0.25472757  0.10555895  0.08995975    -0.15100
H449        H  0.30566397  0.10688045  0.09432833     0.11000
H450        H  0.25281505  0.10685335  0.18560485     0.11000
H451        H  0.20286089  0.10704684  0.15456589     0.11000
H452        H  0.25571756  0.10664521  0.06328677     0.11000
C453        C  0.28325320  0.27179295  0.24852206    -0.15100
C454        C  0.27963171  0.23577996  0.23298388     0.07000
C455        C  0.25008808  0.21643912  0.23492228    -0.15100
C456        C  0.22468026  0.23277181  0.25214619    -0.15100
C457        C  0.22829607  0.26879806  0.26766968     0.07000
C458        C  0.25785115  0.28811808  0.26575480    -0.15100
H459        H  0.30587698  0.28692954  0.24800634     0.11000
H460        H  0.24668998  0.18830010  0.22350271     0.11000
H461        H  0.20204220  0.21766500  0.25261731     0.11000
H462        H  0.26124297  0.31627693  0.27714168     0.11000
C463        C  0.35539080  0.23312409  0.35333187    -0.15100
C464        C  0.37336047  0.26767352  0.35400436     0.07000
C465        C  0.39310843  0.27646615  0.32715208    -0.15100
C466        C  0.39443540  0.25154432  0.29996112    -0.15100
C467        C  0.37567541  0.21759326  0.29884732     0.07000
C468        C  0.35634770  0.20851644  0.32595333    -0.15100
H469        H  0.34010301  0.22538283  0.37382176     0.11000
H470        H  0.40755563  0.30253242  0.32718693     0.11000
H471        H  0.40923262  0.25974057  0.27921454     0.11000
H472        H  0.34135183  0.18291781  0.32565145     0.11000
C473        C  0.39599601  0.25719555  0.05188943    -0.15100
C474        C  0.37432072  0.28834728  0.04920733     0.07000
C475        C  0.35175446  0.29381494  0.07430333    -0.15100
C476        C  0.35066575  0.26853910  0.10124435    -0.15100
C477        C  0.37179955  0.23688992  0.10347718     0.07000
C478        C  0.39459199  0.23157109  0.07863430    -0.15100
H479        H  0.41340330  0.25176669  0.03271965     0.11000
H480        H  0.33438374  0.31701527  0.07271088     0.11000
H481        H  0.33295011  0.27348122  0.12021465     0.11000
H482        H  0.41152149  0.20787347  0.08006391     0.11000
C483        C  0.25009150  0.28770612  0.98311942    -0.15100
C484        C  0.28009964  0.26934450  0.48301805     0.07000
C485        C  0.28416540  0.23468553  0.50058216    -0.15100
C486        C  0.25864749  0.21857915  0.51778759    -0.15100
C487        C  0.22857295  0.23678959  0.01766408     0.07000
C488        C  0.22458440  0.27161421  0.00033347    -0.15100
H489        H  0.24637448  0.31485587  0.97016358     0.11000
H490        H  0.30718445  0.22048300  0.50163073     0.11000
H491        H  0.26233864  0.19140818  0.53072139     0.11000
H492        H  0.20156270  0.28580629  0.99925385     0.11000
C493        C  0.28290557  0.39655323  0.35695854    -0.15100
C494        C  0.28306422  0.39733477  0.39166272     0.07000
C495        C  0.25371065  0.40030986  0.40825555    -0.15100
C496        C  0.22490213  0.40035874  0.39065360    -0.15100
C497        C  0.22474465  0.39801846  0.35600106     0.07000
C498        C  0.25413696  0.39716747  0.33935803    -0.15100
H499        H  0.30502615  0.39397122  0.34337551     0.11000
H500        H  0.25290237  0.40050969  0.43494918     0.11000
H501        H  0.20268996  0.40076090  0.40425166     0.11000
H502        H  0.25489952  0.39476147  0.31273851     0.11000
C503        C  0.78411909  0.27181643  0.99933955    -0.15100
C504        C  0.78011597  0.23702219  0.01670116     0.07000
C505        C  0.75006626  0.21881115  0.51687036    -0.15100
C506        C  0.72457501  0.23484567  0.49961986    -0.15100
C507        C  0.72863430  0.26946060  0.48201493     0.07000
C508        C  0.75861141  0.28787242  0.98210443    -0.15100
H509        H  0.80713427  0.28601107  0.99826860     0.11000
H510        H  0.74637095  0.19168159  0.52986120     0.11000
H511        H  0.70156343  0.22064376  0.50070131     0.11000
H512        H  0.76228753  0.31502353  0.96914189     0.11000
C513        C  0.75324732  0.39994307  0.33929525    -0.15100
C514        C  0.78274028  0.39919144  0.35580521     0.07000
C515        C  0.78276191  0.40032792  0.39049460    -0.15100
C516        C  0.75407659  0.40039745  0.40824523    -0.15100
C517        C  0.72459802  0.39876386  0.39179050     0.07000
C518        C  0.72453298  0.39944518  0.35706722    -0.15100
H519        H  0.75232950  0.39862944  0.31262630     0.11000
H520        H  0.80502168  0.39957467  0.40400475     0.11000
H521        H  0.75505849  0.39948688  0.43492277     0.11000
H522        H  0.70227779  0.39800891  0.34358963     0.11000
C523        C  0.65317409  0.23487307  0.35265368    -0.15100
C524        C  0.63479051  0.26909549  0.35357232     0.07000
C525        C  0.61460085  0.27754866  0.32697971    -0.15100
C526        C  0.61321872  0.25254519  0.29981000    -0.15100
C527        C  0.63229882  0.21884063  0.29853641     0.07000
C528        C  0.65210194  0.21018528  0.32537091    -0.15100
H529        H  0.66883247  0.22738890  0.37292108     0.11000
H530        H  0.59983812  0.30335854  0.32722730     0.11000
H531        H  0.59807074  0.26042647  0.27924016     0.11000
H532        H  0.66737350  0.18482213  0.32493911     0.11000
C533        C  0.61521281  0.25288621  0.04940038    -0.15100
C534        C  0.63461090  0.28632688  0.04836293     0.07000
C535        C  0.65494906  0.29403347  0.07496105    -0.15100
C536        C  0.65581436  0.26898228  0.10202974    -0.15100
C537        C  0.63669663  0.23536227  0.10291259     0.07000
C538        C  0.61640648  0.22751931  0.07630737    -0.15100
H539        H  0.59975338  0.24561912  0.02892190     0.11000
H540        H  0.67058556  0.31905528  0.07460469     0.11000
H541        H  0.67168064  0.27584854  0.12227763     0.11000
H542        H  0.60119629  0.20210610  0.07648442     0.11000
C543        C  0.52079557  0.36794014  0.43348205    -0.15100
C544        C  0.53789759  0.33289160  0.43517824     0.07000
C545        C  0.52087121  0.29776910  0.43701407    -0.15100
C546        C  0.48744916  0.29779222  0.43679419    -0.15100
C547        C  0.47043446  0.33293267  0.43472506     0.07000
C548        C  0.48754231  0.36796001  0.43322895    -0.15100
H549        H  0.53311609  0.39553812  0.43220145     0.11000
H550        H  0.53335560  0.27027988  0.43835808     0.11000
H551        H  0.47495216  0.27031146  0.43799776     0.11000
H552        H  0.47522747  0.39556032  0.43179699     0.11000
C553        C  0.12373814  0.53463460  0.26800676    -0.15100
C554        C  0.12722340  0.53904653  0.23361308     0.07000
C555        C  0.12852988  0.50563735  0.21391840    -0.15100
C556        C  0.12866401  0.46874146  0.22848322    -0.15100
C557        C  0.12726601  0.46438023  0.26306863     0.07000
C558        C  0.12363635  0.49771521  0.28256907    -0.15100
H559        H  0.12255840  0.55989407  0.28387654     0.11000
H560        H  0.13143937  0.50802793  0.18745739     0.11000
H561        H  0.13138750  0.44362693  0.21265285     0.11000
H562        H  0.12254639  0.49542651  0.30918014     0.11000
C563        C  0.88434174  0.50720957  0.21556789    -0.15100
C564        C  0.88134479  0.54048812  0.23526858     0.07000
C565        C  0.88075584  0.53599698  0.26985167    -0.15100
C566        C  0.88084457  0.49906459  0.28428020    -0.15100
C567        C  0.88130393  0.46573121  0.26446284     0.07000
C568        C  0.88418340  0.47020918  0.23001520    -0.15100
H569        H  0.88486837  0.50962799  0.18894678     0.11000
H570        H  0.87862843  0.56106957  0.28582791     0.11000
H571        H  0.87851066  0.49662954  0.31079963     0.11000
H572        H  0.88477696  0.44499293  0.21406183     0.11000
C573        C  0.98785723  0.63736508  0.18287592    -0.15100
C574        C  0.97083119  0.67248728  0.18431509     0.07000
C575        C  0.98792485  0.70757794  0.18579111    -0.15100
C576        C  0.02133909  0.70745285  0.18574868    -0.15100
C577        C  0.03827934  0.67223695  0.18421138     0.07000
C578        C  0.02111100  0.63724205  0.18282125    -0.15100
H579        H  0.97547862  0.60979251  0.18181318     0.11000
H580        H  0.97549470  0.73511903  0.18684722     0.11000
H581        H  0.03389064  0.73490609  0.18677299     0.11000
H582        H  0.03337683  0.60958771  0.18172843     0.11000
C583        C  0.88338153  0.99890350  0.46572270    -0.15100
C584        C  0.88101053  0.96555724  0.48543700     0.07000
C585        C  0.88108201  0.96999797  0.02003481    -0.15100
C586        C  0.88121379  0.00694542  0.03450049    -0.15100
C587        C  0.88104104  0.04032627  0.01469997     0.07000
C588        C  0.88325825  0.03587665  0.48019264    -0.15100
H589        H  0.88337539  0.99654361  0.43909295     0.11000
H590        H  0.87946161  0.94485952  0.03600914     0.11000
H591        H  0.87943604  0.00933760  0.06106677     0.11000
H592        H  0.88336598  0.06109322  0.46421745     0.11000
C593        C  0.85491848  0.73487673  0.35351894    -0.15100
C594        C  0.87368115  0.76879818  0.35447209     0.07000
C595        C  0.89434843  0.77652399  0.32811931    -0.15100
C596        C  0.89573812  0.75121890  0.30111966    -0.15100
C597        C  0.87615908  0.71793911  0.29970485     0.07000
C598        C  0.85597055  0.70991197  0.32637293    -0.15100
H599        H  0.83892846  0.72789436  0.37362878     0.11000
H600        H  0.90947016  0.80201240  0.32841889     0.11000
H601        H  0.91127140  0.75860229  0.28073424     0.11000
H602        H  0.84034723  0.68488210  0.32587977     0.11000
C603        C  0.85240781  0.79404479  0.07552324    -0.15100
C604        C  0.87385109  0.78750936  0.04959806     0.07000
C605        C  0.89464328  0.75538247  0.05149860    -0.15100
C606        C  0.89359616  0.73001517  0.07842376    -0.15100
C607        C  0.87206166  0.73654784  0.10422724     0.07000
C608        C  0.85170158  0.76902006  0.10264988    -0.15100
H609        H  0.83571990  0.81802193  0.07453515     0.11000
H610        H  0.91110342  0.74906808  0.03164079     0.11000
H611        H  0.90984931  0.70558522  0.07923446     0.11000
H612        H  0.83490882  0.77486851  0.12231864     0.11000
C613        C  0.12658720  0.99910477  0.46459804    -0.15100
C614        C  0.12768564  0.96561273  0.48425303     0.07000
C615        C  0.12654959  0.96991910  0.51884301    -0.15100
C616        C  0.12645849  0.00680116  0.03345200    -0.15100
C617        C  0.12773697  0.04029061  0.01382238     0.07000
C618        C  0.12674335  0.03601536  0.97921898    -0.15100
H619        H  0.12754234  0.99685499  0.43797916     0.11000
H620        H  0.12722590  0.94466344  0.53475879     0.11000
H621        H  0.12729222  0.00901432  0.06007840     0.11000
H622        H  0.12756649  0.06128616  0.96333008     0.11000
C623        C  0.15350770  0.73321188  0.35396798    -0.15100
C624        C  0.13533713  0.76766348  0.35443582     0.07000
C625        C  0.11555189  0.77599635  0.32750574    -0.15100
C626        C  0.11422048  0.75064827  0.30056774    -0.15100
C627        C  0.13303076  0.71669420  0.29971358     0.07000
C628        C  0.15256581  0.70818701  0.32681456    -0.15100
H629        H  0.16888061  0.72581542  0.37449009     0.11000
H630        H  0.10098986  0.80197444  0.32733172     0.11000
H631        H  0.09930443  0.75848617  0.27980650     0.11000
H632        H  0.16766331  0.68266521  0.32671105     0.11000
C633        C  0.15593486  0.79490583  0.07577285    -0.15100
C634        C  0.13453574  0.78821931  0.04979739     0.07000
C635        C  0.11383880  0.75603116  0.05181725    -0.15100
C636        C  0.11506039  0.73063308  0.07873951    -0.15100
C637        C  0.13664603  0.73716097  0.10451808     0.07000
C638        C  0.15677095  0.76986512  0.10295774    -0.15100
H639        H  0.17251983  0.81897548  0.07475197     0.11000
H640        H  0.09737099  0.74960991  0.03198871     0.11000
H641        H  0.09893455  0.70608976  0.07952213     0.11000
H642        H  0.17355102  0.77580228  0.12262098     0.11000
C643        C  0.98753843  0.86825227  0.43279445    -0.15100
C644        C  0.97040501  0.83336059  0.43579259     0.07000
C645        C  0.98740396  0.79833370  0.43894106    -0.15100
C646        C  0.02082659  0.79826955  0.43875399    -0.15100
C647        C  0.03787731  0.83322923  0.43541024     0.07000
C648        C  0.02079294  0.86818543  0.43258458    -0.15100
H649        H  0.97524604  0.89578028  0.43044231     0.11000
H650        H  0.97489571  0.77096869  0.44133360     0.11000
H651        H  0.03329531  0.77085495  0.44102321     0.11000
H652        H  0.03312441  0.89566272  0.43010319     0.11000
C653        C  0.38306194  0.50666280  0.03226429    -0.15100
C654        C  0.38043440  0.54009055  0.01270674     0.07000
C655        C  0.38030611  0.53585425  0.47807927    -0.15100
C656        C  0.38059886  0.49897430  0.46345575    -0.15100
C657        C  0.38078749  0.46549925  0.48314629     0.07000
C658        C  0.38311860  0.46979941  0.01765377    -0.15100
H659        H  0.38317385  0.50885742  0.05890400     0.11000
H660        H  0.37845032  0.56107667  0.46222633     0.11000
H661        H  0.37868450  0.49668293  0.43689236     0.11000
H662        H  0.38346855  0.44451352  0.03354691     0.11000
C663        C  0.25855502  0.78762457  0.48265502    -0.15100
C664        C  0.22848713  0.76943739  0.48269007     0.07000
C665        C  0.22435163  0.73482327  0.50028415    -0.15100
C666        C  0.24982100  0.71863804  0.01748768    -0.15100
C667        C  0.27993865  0.73668944  0.01730022     0.07000
C668        C  0.28404376  0.77141606  0.99984685    -0.15100
H669        H  0.26231453  0.81473077  0.46965055     0.11000
H670        H  0.20129260  0.72074117  0.50140897     0.11000
H671        H  0.24604645  0.69153044  0.03048630     0.11000
H672        H  0.30711892  0.78545520  0.99869420     0.11000
C673        C  0.28328431  0.60339527  0.14060664    -0.15100
C674        C  0.28296646  0.60549138  0.10591986     0.07000
C675        C  0.25334045  0.60532753  0.08970699    -0.15100
C676        C  0.22481580  0.60574276  0.10775405    -0.15100
C677        C  0.22514707  0.60583212  0.14248637     0.07000
C678        C  0.25473008  0.60329939  0.15865894    -0.15100
H679        H  0.30567539  0.60354951  0.15389584     0.11000
H680        H  0.25217451  0.60728291  0.06307622     0.11000
H681        H  0.20248178  0.60774894  0.09446762     0.11000
H682        H  0.25591061  0.60359498  0.18533712     0.11000
C683        C  0.62636734  0.53546590  0.47956703    -0.15100
C684        C  0.62811284  0.53989835  0.01410600     0.07000
C685        C  0.62751372  0.50652718  0.03391096    -0.15100
C686        C  0.62754105  0.46957799  0.01946013    -0.15100
C687        C  0.62789563  0.46514219  0.48487538     0.07000
C688        C  0.62612254  0.49850165  0.46511464    -0.15100
H689        H  0.62665174  0.56066574  0.46357519     0.11000
H690        H  0.62895411  0.50891056  0.06049941     0.11000
H691        H  0.62877076  0.44441373  0.03544452     0.11000
H692        H  0.62645102  0.49612708  0.43848683     0.11000
C693        C  0.74924157  0.78707907  0.48060712    -0.15100
C694        C  0.77961817  0.76979099  0.48231299     0.07000
C695        C  0.78390636  0.73631257  0.00139363    -0.15100
C696        C  0.75827820  0.72033526  0.01843485    -0.15100
C697        C  0.72785578  0.73744120  0.01657168     0.07000
C698        C  0.72356833  0.77103865  0.49761482    -0.15100
H699        H  0.74539618  0.81332939  0.46640885     0.11000
H700        H  0.80720816  0.72306826  0.00387109     0.11000
H701        H  0.76218050  0.69412279  0.03266698     0.11000
H702        H  0.70024883  0.78423782  0.49514614     0.11000
C703        C  0.72550475  0.60678338  0.14083551    -0.15100
C704        C  0.72578414  0.60701083  0.10610613     0.07000
C705        C  0.75539823  0.60493432  0.08992386    -0.15100
C706        C  0.78397954  0.60519604  0.10798598    -0.15100
C707        C  0.78367547  0.60700566  0.14269832     0.07000
C708        C  0.75404552  0.60653747  0.15888131    -0.15100
H709        H  0.70317029  0.60847953  0.15414069     0.11000
H710        H  0.75656051  0.60537550  0.06324601     0.11000
H711        H  0.80636494  0.60562022  0.09469755     0.11000
H712        H  0.75287155  0.60830145  0.18551905     0.11000
C713        C  0.52087183  0.63674012  0.07048207    -0.15100
C714        C  0.53793347  0.67127504  0.06497951     0.07000
C715        C  0.52081893  0.70581221  0.05946569    -0.15100
C716        C  0.48740079  0.70574112  0.05943676    -0.15100
C717        C  0.47040022  0.67113108  0.06491190     0.07000
C718        C  0.48757707  0.63666787  0.07044681    -0.15100
H719        H  0.53325070  0.60961830  0.07487088     0.11000
H720        H  0.53324205  0.73290133  0.55512843     0.11000
H721        H  0.47488826  0.73277441  0.55508184     0.11000
H722        H  0.47528822  0.60949072  0.07481812     0.11000
C723        C  0.62670995  0.99914518  0.28443930    -0.15100
C724        C  0.62728042  0.96575173  0.26464359     0.07000
C725        C  0.62540493  0.97022712  0.23011868    -0.15100
C726        C  0.62517880  0.00719624  0.21564849    -0.15100
C727        C  0.62709539  0.04057078  0.23535924     0.07000
C728        C  0.62675152  0.03612705  0.26995946    -0.15100
H729        H  0.62819864  0.99675163  0.31102564     0.11000
H730        H  0.62561433  0.94503631  0.21412774     0.11000
H731        H  0.62544348  0.00954869  0.18901838     0.11000
H732        H  0.62804442  0.06129515  0.28592260     0.11000
C733        C  0.72462254  0.73502695  0.24879209    -0.15100
C734        C  0.72859562  0.76897784  0.26731369     0.07000
C735        C  0.75889309  0.78648230  0.26896268    -0.15100
C736        C  0.78469159  0.77051846  0.25209981    -0.15100
C737        C  0.78065036  0.73673390  0.23336095     0.07000
C738        C  0.75039939  0.71909185  0.23191568    -0.15100
H739        H  0.70143084  0.72147138  0.24649984     0.11000
H740        H  0.76255017  0.81297976  0.28286466     0.11000
H741        H  0.80788740  0.78407095  0.25435587     0.11000
H742        H  0.74670047  0.69262691  0.21798163     0.11000
C743        C  0.75474704  0.90008659  0.34006131    -0.15100
C744        C  0.72523716  0.89817712  0.35646216     0.07000
C745        C  0.72517594  0.89841387  0.39118688    -0.15100
C746        C  0.75384652  0.89885602  0.40900966    -0.15100
C747        C  0.78337466  0.89851035  0.39259702     0.07000
C748        C  0.78344675  0.89996211  0.35789373    -0.15100
H749        H  0.75573414  0.89950611  0.31337843     0.11000
H750        H  0.70292813  0.89672367  0.40464765     0.11000
H751        H  0.75286557  0.89724345  0.43566460     0.11000
H752        H  0.80574383  0.89949669  0.34444877     0.11000
C753        C  0.65554875  0.73610797  0.39646261    -0.15100
C754        C  0.63539041  0.76874883  0.39486887     0.07000
C755        C  0.61352827  0.77512541  0.42042877    -0.15100
C756        C  0.61221395  0.74963680  0.44729621    -0.15100
C757        C  0.63305399  0.71756739  0.44934440     0.07000
C758        C  0.65454651  0.71096640  0.42347523    -0.15100
H759        H  0.67251336  0.73028365  0.37694703     0.11000
H760        H  0.59733737  0.79961205  0.41953438     0.11000
H761        H  0.59564559  0.75591223  0.46706658     0.11000
H762        H  0.67120330  0.68695943  0.42451295     0.11000
C763        C  0.61398712  0.75412327  0.19820485    -0.15100
C764        C  0.63380135  0.78718584  0.19967653     0.07000
C765        C  0.65444590  0.79470032  0.17325933    -0.15100
C766        C  0.65539272  0.76970368  0.14611646    -0.15100
C767        C  0.63608483  0.73626280  0.14496385     0.07000
C768        C  0.61528615  0.72878702  0.17124449    -0.15100
H769        H  0.59818077  0.74704363  0.21844238     0.11000
H770        H  0.67036165  0.81945021  0.17387266     0.11000
H771        H  0.67158849  0.77635057  0.12609932     0.11000
H772        H  0.59983213  0.70359759  0.17081568     0.11000
C773        C  0.38183156  0.96988861  0.22893238    -0.15100
C774        C  0.38065989  0.96551317  0.26351281     0.07000
C775        C  0.38181107  0.99891841  0.28323725    -0.15100
C776        C  0.38188856  0.03583727  0.26871420    -0.15100
C777        C  0.38102192  0.04023878  0.23412501     0.07000
C778        C  0.38213798  0.00682918  0.21440036    -0.15100
H779        H  0.38106992  0.94467536  0.21298563     0.11000
H780        H  0.38078676  0.99660982  0.30985189     0.11000
H781        H  0.38113090  0.06103532  0.28468146     0.11000
H782        H  0.38134787  0.00917125  0.18777979     0.11000
C783        C  0.39378533  0.75214648  0.44887884    -0.15100
C784        C  0.37421538  0.71885549  0.45005515     0.07000
C785        C  0.35378626  0.71128025  0.42348514    -0.15100
C786        C  0.35286214  0.73637974  0.39642609    -0.15100
C787        C  0.37201075  0.76997167  0.39546736     0.07000
C788        C  0.39253798  0.77758036  0.42195907    -0.15100
H789        H  0.40936885  0.75928245  0.46928928     0.11000
H790        H  0.33805225  0.68635060  0.42388689     0.11000
H791        H  0.33685031  0.72962084  0.37627560     0.11000
H792        H  0.40782910  0.80291912  0.42171809     0.11000
C793        C  0.39395098  0.75269559  0.19897183    -0.15100
C794        C  0.37475845  0.78633816  0.20000102     0.07000
C795        C  0.35469948  0.79434245  0.17321457    -0.15100
C796        C  0.35370340  0.76926643  0.14614110    -0.15100
C797        C  0.37238459  0.73524822  0.14538163     0.07000
C798        C  0.39261982  0.72728716  0.17204074    -0.15100
H799        H  0.40926645  0.74524612  0.21952333     0.11000
H800        H  0.33927845  0.81957380  0.17346897     0.11000
H801        H  0.33795953  0.77635760  0.12584190     0.11000
H802        H  0.40758951  0.70165453  0.17194693     0.11000
C803        C  0.48751119  0.86812290  0.31903098    -0.15100
C804        C  0.47036734  0.83344273  0.31465857     0.07000
C805        C  0.48737339  0.79862643  0.31013452    -0.15100
C806        C  0.52080258  0.79858638  0.31007628    -0.15100
C807        C  0.53786497  0.83336109  0.31454762     0.07000
C808        C  0.52077186  0.86808177  0.31898158    -0.15100
H809        H  0.47522321  0.89547263  0.32257761     0.11000
H810        H  0.47486415  0.77142288  0.30667050     0.11000
H811        H  0.53326790  0.77135099  0.30658245     0.11000
H812        H  0.53310070  0.89540248  0.32249482     0.11000
C813        C  0.28454188  0.73569567  0.24734077    -0.15100
C814        C  0.28013244  0.76888513  0.26676374     0.07000
C815        C  0.24960788  0.78562030  0.26907853    -0.15100
C816        C  0.22389256  0.76932511  0.25235777    -0.15100
C817        C  0.22827215  0.73600005  0.23309144     0.07000
C818        C  0.25882738  0.71940060  0.23061887    -0.15100
H819        H  0.30797310  0.72294184  0.24437295     0.11000
H820        H  0.24567220  0.81163217  0.28355302     0.11000
H821        H  0.20047302  0.78212631  0.25527962     0.11000
H822        H  0.26277211  0.69342658  0.21610004     0.11000
C823        C  0.28309355  0.89978300  0.39034455    -0.15100
C824        C  0.28301151  0.89872027  0.35563926     0.07000
C825        C  0.25349527  0.89948053  0.33919614    -0.15100
C826        C  0.22481803  0.89897203  0.35701893    -0.15100
C827        C  0.22492925  0.89826997  0.39173965     0.07000
C828        C  0.25443283  0.89983309  0.40815269    -0.15100
H829        H  0.30537341  0.89899057  0.40381866     0.11000
H830        H  0.25252611  0.89821256  0.31252843     0.11000
H831        H  0.20254250  0.89758052  0.34357520     0.11000
H832        H  0.25544561  0.89887667  0.43482862     0.11000
O833        O  0.41928837  0.80276462  0.81175203    -0.83600
C834        C  0.31305369  0.89133231  0.83705590     0.95800
O835        O  0.33722910  0.87883507  0.85222553    -0.72700
O836        O  0.38344367  0.82891711  0.86571414    -0.76300
Al837      Al  0.37843293  0.87153435  0.83404523     1.49000
C838        C  0.37205367  0.79468764  0.86558853     0.91000
O839        O  0.33519001  0.77425941  0.78088130    -0.82500
O840        O  0.34837453  0.83115188  0.73591960    -0.76100
Al841      Al  0.37586439  0.79354151  0.79714472     1.90100
O842        O  0.30444567  0.82536011  0.78586044    -0.75100
O843        O  0.36318473  0.90069767  0.75962481    -0.75000
O844        O  0.31399868  0.89538738  0.80594410    -0.80600
O845        O  0.37682639  0.92052774  0.80907705    -0.78800
O846        O  0.36328074  0.84234841  0.80163323    -1.15000
O847        O  0.42074420  0.86602695  0.81897142    -0.74200
C848        C  0.43500809  0.83405530  0.81497418     0.96500
C849        C  0.30782050  0.78991666  0.77971904     0.92900
Al850      Al  0.33497345  0.86192306  0.77392802     1.55600
O851        O  0.36170059  0.78012616  0.83930281    -0.78800
C852        C  0.37400548  0.92680243  0.77822840     0.97100
C853        C  0.37204085  0.80888033  0.73099799     0.92000
O854        O  0.39106821  0.80167104  0.75415693    -0.84100
O855        O  0.61738180  0.80205412  0.75386098    -0.83600
C856        C  0.69523152  0.89074262  0.83773110     0.95800
O857        O  0.69428939  0.89517761  0.80664749    -0.72700
O858        O  0.70387500  0.82541718  0.78596712    -0.76300
Al859      Al  0.67334171  0.86208460  0.77428526     1.49000
C860        C  0.70063396  0.78995445  0.77983375     0.91000
O861        O  0.64634875  0.77946527  0.83894576    -0.82500
O862        O  0.58752571  0.86577494  0.81914321    -0.76100
Al863      Al  0.63242635  0.79342379  0.79682529     1.90100
O864        O  0.62457492  0.82807039  0.86559329    -0.75100
O865        O  0.63149035  0.92033958  0.80989060    -0.75000
O866        O  0.67105017  0.87798198  0.85273977    -0.80600
O867        O  0.64506537  0.90104944  0.76027095    -0.78800
O868        O  0.64500893  0.84217110  0.80176299    -1.15000
O869        O  0.66008448  0.83171288  0.73597663    -0.74200
C870        C  0.63645900  0.80947265  0.73081875     0.96500
C871        C  0.63578288  0.79376645  0.86523724     0.92900
Al872      Al  0.62981242  0.87101054  0.83437693     1.55600
O873        O  0.67325888  0.77425547  0.78068118    -0.78800
C874        C  0.63417701  0.92692940  0.77908326     0.97100
C875        C  0.57323066  0.83388558  0.81482139     0.92000
O876        O  0.58892091  0.80260249  0.81127477    -0.84100
O877        O  0.58881861  0.70228946  0.56137082    -0.83600
C878        C  0.69587892  0.61473578  0.58724960     0.95800
O879        O  0.67165370  0.62730491  0.60227646    -0.72700
O880        O  0.62524162  0.67700286  0.61555650    -0.76300
Al881      Al  0.63032374  0.63419696  0.58417570     1.49000
C882        C  0.63616606  0.71145232  0.61515786     0.91000
O883        O  0.67265540  0.73158259  0.53023136    -0.82500
O884        O  0.65996701  0.67397812  0.98583390    -0.76100
Al885      Al  0.63212324  0.71189381  0.54665402     1.90100
O886        O  0.70376595  0.68087707  0.53573150    -0.75100
O887        O  0.64577142  0.60457891  0.50989726    -0.75000
O888        O  0.69504182  0.61076350  0.55613058    -0.80600
O889        O  0.63206421  0.58510206  0.55944354    -0.78800
O890        O  0.64516799  0.66327285  0.55155306    -1.15000
O891        O  0.58782576  0.63915743  0.56934522    -0.74200
C892        C  0.57331929  0.67091831  0.56508303     0.96500
C893        C  0.70016307  0.71624457  0.52937466     0.92900
Al894      Al  0.67364672  0.64379448  0.52398771     1.55600
O895        O  0.64614279  0.72606487  0.58872638    -0.78800
C896        C  0.63487794  0.57864626  0.52862989     0.97100
C897        C  0.63602072  0.69568892  0.98064094     0.92000
O898        O  0.61694925  0.70300128  0.00372813    -0.84100
O899        O  0.39087080  0.70303679  0.00400082    -0.83600
C900        C  0.31284921  0.61341575  0.58718832     0.95800
O901        O  0.31359592  0.60984650  0.55604169    -0.72700
O902        O  0.30429835  0.68024512  0.53655545    -0.76300
Al903      Al  0.33450107  0.64351291  0.52413446     1.49000
C904        C  0.30771551  0.71564104  0.53020842     0.91000
O905        O  0.36213598  0.72514071  0.58922386    -0.82500
O906        O  0.42064616  0.63875888  0.56907722    -0.76100
Al907      Al  0.37593677  0.71145876  0.54705485     1.90100
O908        O  0.38321982  0.67595698  0.61576845    -0.75100
O909        O  0.37666682  0.58458820  0.55867086    -0.75000
O910        O  0.33705398  0.62591642  0.60227146    -0.80600
O911        O  0.36243072  0.60472076  0.50944352    -0.78800
O912        O  0.36310215  0.66275106  0.55169075    -1.15000
O913        O  0.34770250  0.67437861  0.98611896    -0.74200
C914        C  0.37156387  0.69624921  0.98101066     0.96500
C915        C  0.37225128  0.71042183  0.61555029     0.92900
Al916      Al  0.37824879  0.63337283  0.58399952     1.55600
O917        O  0.33518054  0.73111335  0.53102921    -0.78800
C918        C  0.37361311  0.57857377  0.52778952     0.97100
C919        C  0.43501419  0.67061913  0.56499066     0.92000
O920        O  0.41937859  0.70193117  0.56146047    -0.84100
O921        O  0.08890680  0.80245555  0.93833725    -0.83600
C922        C  0.19503591  0.89070755  0.91054412     0.95800
O923        O  0.17083339  0.87776292  0.89571334    -0.72700
O924        O  0.12464000  0.82735759  0.88341822    -0.76300
Al925      Al  0.12973188  0.87067781  0.91438853     1.49000
C926        C  0.13565253  0.79291974  0.88403076     0.91000
O927        O  0.17331854  0.77444979  0.96870148    -0.82500
O928        O  0.16090907  0.83205347  0.51287359    -0.76100
Al929      Al  0.13243957  0.79346363  0.95260361     1.90100
O930        O  0.20406238  0.82530855  0.96226100    -0.75100
O931        O  0.14564816  0.90106044  0.98831794    -0.75000
O932        O  0.19428133  0.89516427  0.94160589    -0.80600
O933        O  0.13137461  0.92019377  0.93882386    -0.78800
O934        O  0.14512106  0.84209427  0.94707303    -1.15000
O935        O  0.08750269  0.86547454  0.92979841    -0.74200
C936        C  0.07322377  0.83369213  0.93463217     0.96500
C937        C  0.20073178  0.79007436  0.96928190     0.92900
Al938      Al  0.17373422  0.86213505  0.97418774     1.55600
O939        O  0.14597082  0.77873528  0.91049945    -0.78800
C940        C  0.13445367  0.92685061  0.96961194     0.97100
C941        C  0.13711233  0.81024204  0.51846073     0.92000
O942        O  0.11773685  0.80293077  0.49563502    -0.84100
O943        O  0.89047978  0.80243137  0.49554234    -0.83600
C944        C  0.81341047  0.89129185  0.91130245     0.95800
O945        O  0.81424168  0.89574990  0.94237767    -0.72700
O946        O  0.80418031  0.82588950  0.96269789    -0.76300
Al947      Al  0.83471070  0.86236955  0.97479034     1.49000
C948        C  0.80741769  0.79051212  0.96921038     0.91000
O949        O  0.86209360  0.77976370  0.91029403    -0.82500
O950        O  0.92085933  0.86589485  0.93078197    -0.76100
Al951      Al  0.87571222  0.79371020  0.95251938     1.90100
O952        O  0.88413368  0.82832743  0.88382095    -0.75100
O953        O  0.87703182  0.92057443  0.93980223    -0.75000
O954        O  0.83765512  0.87855013  0.89637956    -0.80600
O955        O  0.86298477  0.90097717  0.98919809    -0.78800
O956        O  0.86321947  0.84245539  0.94750562    -1.15000
O957        O  0.84753874  0.83182209  0.51314005    -0.74200
C958        C  0.87123142  0.80973696  0.51845349     0.96500
C959        C  0.87296246  0.79397545  0.88408624     0.92900
Al960      Al  0.87875233  0.87132471  0.91511141     1.55600
O961        O  0.83477362  0.77473912  0.96842465    -0.78800
C962        C  0.87413079  0.92692708  0.97063967     0.97100
C963        C  0.93506478  0.83395980  0.93516899     0.92000
O964        O  0.91930697  0.80269915  0.93838778    -0.84100
O965        O  0.91981365  0.70333574  0.68737484    -0.83600
C966        C  0.81355159  0.61479955  0.66155193     0.95800
O967        O  0.83778276  0.62737444  0.64656131    -0.72700
O968        O  0.88377806  0.67764755  0.63368263    -0.76300
Al969      Al  0.87893266  0.63470745  0.66495855     1.49000
C970        C  0.87230604  0.71185016  0.63403645     0.91000
O971        O  0.83586751  0.73172503  0.71919897    -0.82500
O972        O  0.84911946  0.67423981  0.76328738    -0.76100
Al973      Al  0.87647570  0.71242027  0.70240044     1.90100
O974        O  0.80511789  0.68084689  0.71326981    -0.75100
O975        O  0.86344007  0.60504108  0.73905312    -0.75000
O976        O  0.81427294  0.61097333  0.69270450    -0.80600
O977        O  0.87744980  0.58550594  0.68965168    -0.78800
O978        O  0.86378308  0.66367378  0.69750129    -1.15000
O979        O  0.92119103  0.64010004  0.68011810    -0.74200
C980        C  0.93549331  0.67201920  0.68408550     0.96500
C981        C  0.80846586  0.71610382  0.72008593     0.92900
Al982      Al  0.83543814  0.64400731  0.72500208     1.55600
O983        O  0.86209033  0.72633392  0.66042514    -0.78800
C984        C  0.87451991  0.57910949  0.72046428     0.97100
C985        C  0.87303717  0.69607035  0.76839572     0.92000
O986        O  0.89195307  0.70355578  0.74520747    -0.84100
O987        O  0.11714199  0.70214092  0.74531693    -0.83600
C988        C  0.19540200  0.61398706  0.66139507     0.95800
O989        O  0.19455273  0.60975656  0.69251336    -0.72700
O990        O  0.20402749  0.67939801  0.71401554    -0.76300
Al991      Al  0.17337100  0.64255700  0.72501960     1.49000
C992        C  0.20057229  0.71480492  0.72035986     0.91000
O993        O  0.14701294  0.72612190  0.66068179    -0.82500
O994        O  0.08784118  0.63964797  0.67955456    -0.76100
Al995      Al  0.13263671  0.71151704  0.70261238     1.90100
O996        O  0.12542383  0.67773816  0.63355736    -0.75100
O997        O  0.13156377  0.58480636  0.68867785    -0.75000
O998        O  0.17137157  0.62718493  0.64641151    -0.80600
O999        O  0.14497505  0.60356028  0.73848918    -0.78800
O1000       O  0.14527968  0.66282190  0.69740680    -1.15000
O1001       O  0.15975363  0.67246074  0.76348260    -0.74200
C1002       C  0.13599992  0.69454710  0.76853198     0.96500
C1003       C  0.13672750  0.71201910  0.63417001     0.92900
Al1004     Al  0.13018274  0.63436836  0.66453093     1.55600
O1005       O  0.17317189  0.73038292  0.71940633    -0.78800
C1006       C  0.13412974  0.57793062  0.71944563     0.97100
C1007       C  0.07360494  0.67155834  0.68390332     0.92000
O1008       O  0.08933709  0.70275331  0.68754416    -0.84100
O1009       O  0.58901846  0.30218518  0.93742092    -0.83600
C1010       C  0.69471994  0.39108738  0.91058276     0.95800
O1011       O  0.67045626  0.37834687  0.89570097    -0.72700
O1012       O  0.62407182  0.32819270  0.88323222    -0.76300
Al1013     Al  0.62946059  0.37100237  0.91456590     1.49000
C1014       C  0.63541246  0.29392605  0.88332434     0.91000
O1015       O  0.67352160  0.27412338  0.96768093    -0.82500
O1016       O  0.66080038  0.33106376  0.51230364    -0.76100
Al1017     Al  0.63261023  0.29321556  0.95165061     1.90100
O1018       O  0.70404708  0.32522540  0.96171752    -0.75100
O1019       O  0.64554143  0.40040916  0.98864800    -0.75000
O1020       O  0.69406465  0.39520108  0.94169413    -0.80600
O1021       O  0.63129819  0.42010407  0.93932990    -0.78800
O1022       O  0.64508382  0.34199530  0.94679242    -1.15000
O1023       O  0.58742124  0.36546790  0.93040420    -0.74200
C1024       C  0.57323415  0.33347938  0.93451986     0.96500
C1025       C  0.70085512  0.28992759  0.96851470     0.92900
Al1026     Al  0.67365563  0.36174048  0.97404872     1.55600
O1027       O  0.64632432  0.27952369  0.90944919    -0.78800
C1028       C  0.63444097  0.42643950  0.97013228     0.97100
C1029       C  0.63709120  0.30896815  0.51748816     0.92000
O1030       O  0.61778005  0.30189721  0.49458706    -0.84100
O1031       O  0.39099864  0.30264193  0.49498056    -0.83600
C1032       C  0.31308848  0.39002936  0.91032454     0.95800
O1033       O  0.31404675  0.39478565  0.94134628    -0.72700
O1034       O  0.30448724  0.32509669  0.96236832    -0.76300
Al1035     Al  0.33488455  0.36197372  0.97387745     1.49000
C1036       C  0.30782960  0.28986220  0.96938878     0.91000
O1037       O  0.36225079  0.27855167  0.91000773    -0.82500
O1038       O  0.42080449  0.36531834  0.92921981    -0.76100
Al1039     Al  0.37600779  0.29319340  0.95207540     1.90100
O1040       O  0.38373535  0.32715639  0.88305654    -0.75100
O1041       O  0.37674506  0.41994613  0.93799478    -0.75000
O1042       O  0.33726164  0.37711942  0.89538997    -0.80600
O1043       O  0.36306921  0.40094932  0.98767417    -0.78800
O1044       O  0.36330058  0.34183403  0.94663087    -1.15000
O1045       O  0.34804330  0.33213934  0.51239127    -0.74200
C1046       C  0.37179265  0.31023476  0.51787791     0.96500
C1047       C  0.37275611  0.29274891  0.88361738     0.92900
Al1048     Al  0.37849876  0.37037777  0.91385967     1.55600
O1049       O  0.33521533  0.27415718  0.96850777    -0.78800
C1050       C  0.37399200  0.42668859  0.96877079     0.97100
C1051       C  0.43509799  0.33348529  0.93393711     0.92000
O1052       O  0.41943365  0.30222539  0.93754526    -0.84100
O1053       O  0.41896057  0.20371856  0.68649424    -0.83600
C1054       C  0.31322848  0.11454445  0.66110691     0.95800
O1055       O  0.33724320  0.12748060  0.64595924    -0.72700
O1056       O  0.38319461  0.17784218  0.63283555    -0.76300
Al1057     Al  0.37840205  0.13484531  0.66409640     1.49000
C1058       C  0.37160084  0.21197277  0.63315163     0.91000
O1059       O  0.33474845  0.23129172  0.71823969    -0.82500
O1060       O  0.34874905  0.17383578  0.76255608    -0.76100
Al1061     Al  0.37551102  0.21248723  0.70146857     1.90100
O1062       O  0.30440885  0.17993053  0.71300832    -0.75100
O1063       O  0.36373731  0.10499771  0.73825241    -0.75000
O1064       O  0.31424141  0.11029889  0.69220715    -0.80600
O1065       O  0.37706844  0.08549003  0.68866183    -0.78800
O1066       O  0.36319836  0.16363073  0.69671160    -1.15000
O1067       O  0.42061182  0.14046846  0.67915387    -0.74200
C1068       C  0.43477505  0.17248850  0.68312341     0.96500
C1069       C  0.30749523  0.21530385  0.71954232     0.92900
Al1070     Al  0.33521001  0.14353885  0.72441352     1.55600
O1071       O  0.36097774  0.22622350  0.65945332    -0.78800
C1072       C  0.37444147  0.07901270  0.71949706     0.97100
C1073       C  0.37246398  0.19598181  0.76750282     0.92000
O1074       O  0.39111191  0.20390951  0.74420423    -0.84100
O1075       O  0.61653204  0.20452296  0.74404476    -0.83600
C1076       C  0.69489786  0.11452638  0.66149908     0.95800
O1077       O  0.69405381  0.11082883  0.69264723    -0.72700
O1078       O  0.70325842  0.18090899  0.71260000    -0.76300
Al1079     Al  0.67286327  0.14422382  0.72456827     1.49000
C1080       C  0.69992749  0.21629210  0.71897214     0.91000
O1081       O  0.64648504  0.22563712  0.65913910    -0.82500
O1082       O  0.58712539  0.14007696  0.67945247    -0.76100
Al1083     Al  0.63200828  0.21252369  0.70116887     1.90100
O1084       O  0.62472463  0.17677803  0.63276543    -0.75100
O1085       O  0.63085100  0.08543571  0.68965893    -0.75000
O1086       O  0.67063888  0.12672694  0.64632322    -0.80600
O1087       O  0.64481530  0.10532885  0.73897212    -0.78800
O1088       O  0.64456812  0.16363459  0.69683611    -1.15000
O1089       O  0.65914492  0.17487700  0.76241788    -0.74200
C1090       C  0.63535839  0.19696407  0.76730371     0.96500
C1091       C  0.63631054  0.21090745  0.63285247     0.92900
Al1092     Al  0.62944700  0.13430697  0.66450582     1.55600
O1093       O  0.67256666  0.23195198  0.71773698    -0.78800
C1094       C  0.63379467  0.07923145  0.72050280     0.97100
C1095       C  0.57291836  0.17213592  0.68313940     0.92000
O1096       O  0.58868906  0.20338941  0.68625721    -0.84100
O1097       O  0.91872970  0.30262671  0.81105064    -0.83600
C1098       C  0.81282560  0.39175222  0.83731785     0.95800
O1099       O  0.83686722  0.37878334  0.85246022    -0.72700
O1100       O  0.88308196  0.32859075  0.86561441    -0.76300
Al1101     Al  0.87810983  0.37138242  0.83425869     1.49000
C1102       C  0.87184932  0.29431832  0.86535058     0.91000
O1103       O  0.83414917  0.27500462  0.78087586    -0.82500
O1104       O  0.84743780  0.33217155  0.73595458    -0.76100
Al1105     Al  0.87512373  0.29377517  0.79682229     1.90100
O1106       O  0.80375285  0.32644332  0.78588214    -0.75100
O1107       O  0.86318720  0.40124102  0.75997829    -0.75000
O1108       O  0.81393608  0.39626179  0.80626925    -0.80600
O1109       O  0.87675361  0.42050267  0.80962998    -0.78800
O1110       O  0.86277870  0.34260146  0.80168917    -1.15000
O1111       O  0.92040241  0.36573775  0.81916673    -0.74200
C1112       C  0.93455609  0.33377086  0.81471918     0.96500
C1113       C  0.80686568  0.29094458  0.77975680     0.92900
Al1114     Al  0.83455967  0.36274595  0.77411510     1.55600
O1115       O  0.86133550  0.27991728  0.83906522    -0.78800
C1116       C  0.87421886  0.42700511  0.77880233     0.97100
C1117       C  0.87095282  0.30981974  0.73077095     0.92000
O1118       O  0.89003489  0.30224773  0.75378420    -0.84100
O1119       O  0.11709297  0.30060664  0.75501529    -0.83600
C1120       C  0.19455059  0.39098247  0.83764706     0.95800
O1121       O  0.19357813  0.39496760  0.80655140    -0.72700
O1122       O  0.20348364  0.32484428  0.78716934    -0.76300
Al1123     Al  0.17295136  0.36114674  0.77473940     1.49000
C1124       C  0.20039232  0.28941686  0.78086798     0.91000
O1125       O  0.14625497  0.27995995  0.84026317    -0.82500
O1126       O  0.08699571  0.36533963  0.81923862    -0.76100
Al1127     Al  0.13218085  0.29284666  0.79805217     1.90100
O1128       O  0.12419120  0.32884448  0.86632205    -0.75100
O1129       O  0.13073108  0.41995314  0.80914298    -0.75000
O1130       O  0.17033070  0.37875064  0.85287473    -0.80600
O1131       O  0.14474985  0.39955617  0.75998842    -0.78800
O1132       O  0.14455841  0.34174290  0.80234639    -1.15000
O1133       O  0.15981300  0.33016688  0.73693889    -0.74200
C1134       C  0.13610525  0.30804810  0.73191500     0.96500
C1135       C  0.13578187  0.29471908  0.86640658     0.92900
Al1136     Al  0.12918808  0.37117616  0.83448204     1.55600
O1137       O  0.17308626  0.27354755  0.78201095    -0.78800
C1138       C  0.13377207  0.42586836  0.77825779     0.97100
C1139       C  0.07280693  0.33330639  0.81536393     0.92000
O1140       O  0.08860401  0.30201132  0.81240554    -0.84100
O1141       O  0.08906908  0.20300264  0.56239473    -0.83600
C1142       C  0.19525744  0.11433677  0.58773710     0.95800
O1143       O  0.17106185  0.12684856  0.60284365    -0.72700
O1144       O  0.12481488  0.17671237  0.61614092    -0.76300
Al1145     Al  0.12988418  0.13414556  0.58455141     1.49000
C1146       C  0.13610261  0.21098598  0.61605568     0.91000
O1147       O  0.17330939  0.23155906  0.53151412    -0.82500
O1148       O  0.16011955  0.17464176  0.98672124    -0.76100
Al1149     Al  0.13252650  0.21220737  0.54775914     1.90100
O1150       O  0.20395007  0.18041796  0.53670299    -0.75100
O1151       O  0.14530178  0.10511299  0.51015987    -0.75000
O1152       O  0.19438017  0.11034237  0.55662403    -0.80600
O1153       O  0.13152571  0.08515715  0.55952786    -0.78800
O1154       O  0.14510453  0.16338971  0.55225006    -1.15000
O1155       O  0.08757385  0.13970411  0.56940759    -0.74200
C1156       C  0.07331795  0.17172664  0.56562156     0.96500
C1157       C  0.20069507  0.21587025  0.53051397     0.92900
Al1158     Al  0.17347068  0.14386364  0.52462553     1.55600
O1159       O  0.14663838  0.22560203  0.58987201    -0.78800
C1160       C  0.13439853  0.07896243  0.52866918     0.97100
C1161       C  0.13637891  0.19676551  0.98176924     0.92000
O1162       O  0.11730973  0.20394164  0.00486589    -0.84100
O1163       O  0.89123159  0.20353716  0.00390563    -0.83600
C1164       C  0.81287385  0.11510371  0.58768779     0.95800
O1165       O  0.81376715  0.11082854  0.55659566    -0.72700
O1166       O  0.80457667  0.18074319  0.53604631    -0.76300
Al1167     Al  0.83490855  0.14391533  0.52432357     1.49000
C1168       C  0.80793442  0.21610831  0.52957349     0.91000
O1169       O  0.86177897  0.22659932  0.58878596    -0.82500
O1170       O  0.92070247  0.14018678  0.56956297    -0.76100
Al1171     Al  0.87599072  0.21246119  0.54680914     1.90100
O1172       O  0.88313624  0.17782592  0.61566367    -0.75100
O1173       O  0.87682343  0.08567937  0.55991757    -0.75000
O1174       O  0.83705673  0.12784572  0.60266378    -0.80600
O1175       O  0.86304146  0.10487964  0.51030639    -0.78800
O1176       O  0.86327407  0.16373669  0.55180407    -1.15000
O1177       O  0.84834091  0.17417579  0.98607900    -0.74200
C1178       C  0.87210901  0.19616793  0.98086266     0.96500
C1179       C  0.87180919  0.21207190  0.61522355     0.92900
Al1180     Al  0.87830538  0.13491137  0.58447742     1.55600
O1181       O  0.83534530  0.23169034  0.53033705    -0.78800
C1182       C  0.87407841  0.07909273  0.52911598     0.97100
C1183       C  0.93504523  0.17206706  0.56540715     0.92000
O1184       O  0.91938222  0.20333259  0.56167169    -0.84100
C1185       C  0.98749371  0.13761924  0.56836208    -0.15100
C1186       C  0.97042296  0.17258434  0.56544356     0.07000
C1187       C  0.98752030  0.20758119  0.56267888    -0.15100
C1188       C  0.02095413  0.20749649  0.56273148    -0.15100
C1189       C  0.03794283  0.17241186  0.56553728     0.07000
C1190       C  0.02076389  0.13753316  0.56839986    -0.15100
H1191       H  0.97513778  0.11012466  0.57055570     0.11000
H1192       H  0.97507716  0.23502287  0.06049819     0.11000
H1193       H  0.03348194  0.23487600  0.06058579     0.11000
H1194       H  0.03303355  0.10997670  0.57063003     0.11000
C1195       C  0.15374820  0.29406423  0.67428894    -0.15100
C1196       C  0.13329762  0.28606347  0.70074273     0.07000
C1197       C  0.11366047  0.25287655  0.69921251    -0.15100
C1198       C  0.11503713  0.22777292  0.67212956    -0.15100
C1199       C  0.13577221  0.23563248  0.64587961     0.07000
C1200       C  0.15481489  0.26928062  0.64707715    -0.15100
H1201       H  0.16947632  0.31899291  0.67495197     0.11000
H1202       H  0.09799688  0.24550577  0.71949496     0.11000
H1203       H  0.09976256  0.20242421  0.67162012     0.11000
H1204       H  0.17091668  0.27625391  0.62705838     0.11000
C1205       C  0.11500889  0.27763283  0.92255889    -0.15100
C1206       C  0.13590760  0.27027982  0.89634884     0.07000
C1207       C  0.15544621  0.23704427  0.89753394    -0.15100
C1208       C  0.15446803  0.21193853  0.92452740    -0.15100
C1209       C  0.13366521  0.21922645  0.95082155     0.07000
C1210       C  0.11375106  0.25221181  0.94945328    -0.15100
H1211       H  0.09942518  0.30271283  0.92209043     0.11000
H1212       H  0.17176553  0.23054148  0.87758914     0.11000
H1213       H  0.17048382  0.18727054  0.92511748     0.11000
H1214       H  0.09787281  0.25910789  0.96967659     0.11000
C1215       C  0.89450133  0.25579617  0.69750568    -0.15100
C1216       C  0.87350042  0.28768153  0.69959558     0.07000
C1217       C  0.85175179  0.29399121  0.67387186    -0.15100
C1218       C  0.85096610  0.26896727  0.64675806    -0.15100
C1219       C  0.87156011  0.23674056  0.64501056     0.07000
C1220       C  0.89337745  0.23043511  0.67060393    -0.15100
H1221       H  0.91120224  0.24966752  0.71719732     0.11000
H1222       H  0.83487848  0.31776462  0.67502144     0.11000
H1223       H  0.83394912  0.27460919  0.62724241     0.11000
H1224       H  0.90981236  0.20619587  0.66962935     0.11000
C1225       C  0.85219111  0.23667936  0.89672102    -0.15100
C1226       C  0.87217244  0.26946901  0.89511527     0.07000
C1227       C  0.89384058  0.27615166  0.92080987    -0.15100
C1228       C  0.89527284  0.25069207  0.94770015    -0.15100
C1229       C  0.87475392  0.21831944  0.94965294     0.07000
C1230       C  0.85330844  0.21156140  0.92376145    -0.15100
H1231       H  0.83532881  0.23066056  0.87715062     0.11000
H1232       H  0.90984484  0.30081156  0.91997185     0.11000
H1233       H  0.91173507  0.25716176  0.96752354     0.11000
H1234       H  0.83683816  0.18737365  0.92475606     0.11000
C1235       C  0.98710485  0.36725665  0.82076571    -0.15100
C1236       C  0.96992683  0.33301189  0.81450708     0.07000
C1237       C  0.98691277  0.29852109  0.80833506    -0.15100
C1238       C  0.02036132  0.29838002  0.80855316    -0.15100
C1239       C  0.03743791  0.33273541  0.81492010     0.07000
C1240       C  0.02035379  0.36711967  0.82096788    -0.15100
H1241       H  0.97484986  0.39433633  0.82566597     0.11000
H1242       H  0.97437293  0.27166886  0.80335003     0.11000
H1243       H  0.03282924  0.27143621  0.80370383     0.11000
H1244       H  0.03268383  0.39410509  0.82601119     0.11000
C1245       C  0.75343234  0.10483501  0.59025752    -0.15100
C1246       C  0.78296082  0.10751141  0.60654185     0.07000
C1247       C  0.78311153  0.10791798  0.64127596    -0.15100
C1248       C  0.75450555  0.10746998  0.65919636    -0.15100
C1249       C  0.72494089  0.10710514  0.64287114     0.07000
C1250       C  0.72478890  0.10489757  0.60818438    -0.15100
H1251       H  0.75236495  0.10486632  0.56357315     0.11000
H1252       H  0.80537193  0.11018802  0.65465883     0.11000
H1253       H  0.75554561  0.10967399  0.68581791     0.11000
H1254       H  0.70245205  0.10478299  0.59479641     0.11000
C1255       C  0.75758612  0.21866352  0.73282426    -0.15100
C1256       C  0.72763718  0.23713190  0.73225010     0.07000
C1257       C  0.72358932  0.27226314  0.74911976    -0.15100
C1258       C  0.74903913  0.28860766  0.76627961    -0.15100
C1259       C  0.77900098  0.27014226  0.76679316     0.07000
C1260       C  0.78299877  0.23496397  0.75000700    -0.15100
H1261       H  0.76130402  0.19121086  0.72034945     0.11000
H1262       H  0.70061855  0.28661524  0.74972547     0.11000
H1263       H  0.74537314  0.31608856  0.77872622     0.11000
H1264       H  0.80595511  0.22057894  0.74938103     0.11000
C1265       C  0.48717398  0.13846421  0.67820111    -0.15100
C1266       C  0.47011554  0.17310320  0.68321195     0.07000
C1267       C  0.48718516  0.20775808  0.68821598    -0.15100
C1268       C  0.52061464  0.20765012  0.68821863    -0.15100
C1269       C  0.53757749  0.17288526  0.68322214     0.07000
C1270       C  0.52041370  0.13835559  0.67821260    -0.15100
H1271       H  0.47483546  0.11123810  0.67422226     0.11000
H1272       H  0.47472970  0.23491319  0.69216764     0.11000
H1273       H  0.53315822  0.23473583  0.69217725     0.11000
H1274       H  0.53266910  0.11106514  0.67423959     0.11000
C1275       C  0.28338614  0.10582364  0.60778500    -0.15100
C1276       C  0.28328341  0.10681542  0.64249781     0.07000
C1277       C  0.25379550  0.10566319  0.65893475    -0.15100
C1278       C  0.22513494  0.10591657  0.64110867    -0.15100
C1279       C  0.22523065  0.10678478  0.60639123     0.07000
C1280       C  0.25472757  0.10555892  0.58995974    -0.15100
H1281       H  0.30566398  0.10688034  0.59432830     0.11000
H1282       H  0.25281507  0.10685346  0.68560483     0.11000
H1283       H  0.20286090  0.10704698  0.65456589     0.11000
H1284       H  0.25571755  0.10664512  0.56328676     0.11000
C1285       C  0.28325320  0.27179296  0.74852205    -0.15100
C1286       C  0.27963171  0.23577998  0.73298387     0.07000
C1287       C  0.25008808  0.21643914  0.73492227    -0.15100
C1288       C  0.22468027  0.23277184  0.75214620    -0.15100
C1289       C  0.22829608  0.26879809  0.76766969     0.07000
C1290       C  0.25785116  0.28811810  0.76575481    -0.15100
H1291       H  0.30587698  0.28692955  0.74800631     0.11000
H1292       H  0.24668996  0.18830013  0.72350269     0.11000
H1293       H  0.20204220  0.21766503  0.75261733     0.11000
H1294       H  0.26124299  0.31627695  0.77714169     0.11000
C1295       C  0.35539083  0.23312408  0.85333189    -0.15100
C1296       C  0.37336046  0.26767354  0.85400437     0.07000
C1297       C  0.39310842  0.27646619  0.82715208    -0.15100
C1298       C  0.39443539  0.25154435  0.79996112    -0.15100
C1299       C  0.37567542  0.21759327  0.79884732     0.07000
C1300       C  0.35634773  0.20851643  0.82595334    -0.15100
H1301       H  0.34010304  0.22538282  0.87382179     0.11000
H1302       H  0.40755560  0.30253247  0.82718692     0.11000
H1303       H  0.40923260  0.25974060  0.77921454     0.11000
H1304       H  0.34135187  0.18291780  0.82565148     0.11000
C1305       C  0.39599605  0.25719563  0.55188945    -0.15100
C1306       C  0.37432073  0.28834734  0.54920732     0.07000
C1307       C  0.35175445  0.29381496  0.57430331    -0.15100
C1308       C  0.35066573  0.26853910  0.60124432    -0.15100
C1309       C  0.37179955  0.23688994  0.60347716     0.07000
C1310       C  0.39459203  0.23157116  0.57863431    -0.15100
H1311       H  0.41340336  0.25176680  0.53271968     0.11000
H1312       H  0.33438371  0.31701527  0.57271085     0.11000
H1313       H  0.33295007  0.27348119  0.62021461     0.11000
H1314       H  0.41152154  0.20787355  0.58006393     0.11000
C1315       C  0.25009151  0.28770616  0.48311947    -0.15100
C1316       C  0.28009964  0.26934448  0.98301802     0.07000
C1317       C  0.28416541  0.23468552  0.00058214    -0.15100
C1318       C  0.25864751  0.21857914  0.01778756    -0.15100
C1319       C  0.22857294  0.23678962  0.51766411     0.07000
C1320       C  0.22458440  0.27161426  0.50033352    -0.15100
H1321       H  0.24637450  0.31485591  0.47016365     0.11000
H1322       H  0.30718447  0.22048301  0.00163071     0.11000
H1323       H  0.26233867  0.19140818  0.03072137     0.11000
H1324       H  0.20156271  0.28580636  0.49925391     0.11000
C1325       C  0.28290556  0.39655325  0.85695861    -0.15100
C1326       C  0.28306421  0.39733482  0.89166279     0.07000
C1327       C  0.25371064  0.40030996  0.90825563    -0.15100
C1328       C  0.22490213  0.40035884  0.89065366    -0.15100
C1329       C  0.22474463  0.39801850  0.85600113     0.07000
C1330       C  0.25413695  0.39716747  0.83935811    -0.15100
H1331       H  0.30502615  0.39397123  0.84337559     0.11000
H1332       H  0.25290236  0.40050985  0.93494927     0.11000
H1333       H  0.20268996  0.40076102  0.90425172     0.11000
H1334       H  0.25489951  0.39476144  0.81273860     0.11000
C1335       C  0.78411909  0.27181641  0.49933956    -0.15100
C1336       C  0.78011596  0.23702216  0.51670116     0.07000
C1337       C  0.75006628  0.21881118  0.01687037    -0.15100
C1338       C  0.72457502  0.23484570  0.99961987    -0.15100
C1339       C  0.72863430  0.26946062  0.98201493     0.07000
C1340       C  0.75861141  0.28787239  0.48210444    -0.15100
H1341       H  0.80713427  0.28601104  0.49826862     0.11000
H1342       H  0.74637097  0.19168163  0.02986122     0.11000
H1343       H  0.70156344  0.22064379  0.00070134     0.11000
H1344       H  0.76228753  0.31502349  0.46914190     0.11000
C1345       C  0.75324733  0.39994306  0.83929524    -0.15100
C1346       C  0.78274029  0.39919144  0.85580520     0.07000
C1347       C  0.78276192  0.40032791  0.89049459    -0.15100
C1348       C  0.75407661  0.40039744  0.90824522    -0.15100
C1349       C  0.72459803  0.39876384  0.89179049     0.07000
C1350       C  0.72453298  0.39944517  0.85706721    -0.15100
H1351       H  0.75232950  0.39862944  0.81262629     0.11000
H1352       H  0.80502170  0.39957467  0.90400474     0.11000
H1353       H  0.75505851  0.39948687  0.93492275     0.11000
H1354       H  0.70227780  0.39800889  0.84358963     0.11000
C1355       C  0.65317408  0.23487305  0.85265370    -0.15100
C1356       C  0.63479051  0.26909548  0.85357233     0.07000
C1357       C  0.61460085  0.27754866  0.82697973    -0.15100
C1358       C  0.61321872  0.25254519  0.79981001    -0.15100
C1359       C  0.63229882  0.21884063  0.79853643     0.07000
C1360       C  0.65210193  0.21018527  0.82537093    -0.15100
H1361       H  0.66883245  0.22738888  0.87292110     0.11000
H1362       H  0.59983813  0.30335854  0.82722731     0.11000
H1363       H  0.59807074  0.26042647  0.77924017     0.11000
H1364       H  0.66737349  0.18482210  0.82493913     0.11000
C1365       C  0.61521277  0.25288628  0.54940042    -0.15100
C1366       C  0.63461088  0.28632692  0.54836295     0.07000
C1367       C  0.65494904  0.29403352  0.57496108    -0.15100
C1368       C  0.65581435  0.26898232  0.60202977    -0.15100
C1369       C  0.63669661  0.23536231  0.60291262     0.07000
C1370       C  0.61640643  0.22751937  0.57630741    -0.15100
H1371       H  0.59975333  0.24561920  0.52892195     0.11000
H1372       H  0.67058556  0.31905533  0.57460471     0.11000
H1373       H  0.67168064  0.27584857  0.62227766     0.11000
H1374       H  0.60119625  0.20210616  0.57648446     0.11000
C1375       C  0.52079557  0.36794015  0.93348195    -0.15100
C1376       C  0.53789760  0.33289161  0.93517819     0.07000
C1377       C  0.52087121  0.29776911  0.93701407    -0.15100
C1378       C  0.48744917  0.29779223  0.93679422    -0.15100
C1379       C  0.47043446  0.33293268  0.93472507     0.07000
C1380       C  0.48754231  0.36796001  0.93322889    -0.15100
H1381       H  0.53311609  0.39553813  0.93220131     0.11000
H1382       H  0.53335560  0.27027989  0.93835810     0.11000
H1383       H  0.47495216  0.27031148  0.93799785     0.11000
H1384       H  0.47522746  0.39556033  0.93179692     0.11000
C1385       C  0.12373815  0.53463464  0.76800678    -0.15100
C1386       C  0.12722340  0.53904655  0.73361310     0.07000
C1387       C  0.12852988  0.50563735  0.71391844    -0.15100
C1388       C  0.12866402  0.46874147  0.72848327    -0.15100
C1389       C  0.12726602  0.46438026  0.76306868     0.07000
C1390       C  0.12363636  0.49771524  0.78256912    -0.15100
H1391       H  0.12255841  0.55989411  0.78387656     0.11000
H1392       H  0.13143937  0.50802792  0.68745743     0.11000
H1393       H  0.13138750  0.44362693  0.71265291     0.11000
H1394       H  0.12254642  0.49542656  0.80918018     0.11000
C1395       C  0.88434168  0.50720957  0.71556788    -0.15100
C1396       C  0.88134478  0.54048812  0.73526857     0.07000
C1397       C  0.88075585  0.53599699  0.76985167    -0.15100
C1398       C  0.88084458  0.49906459  0.78428021    -0.15100
C1399       C  0.88130392  0.46573122  0.76446285     0.07000
C1400       C  0.88418335  0.47020919  0.73001521    -0.15100
H1401       H  0.88486830  0.50962799  0.68894677     0.11000
H1402       H  0.87862847  0.56106960  0.78582791     0.11000
H1403       H  0.87851069  0.49662956  0.81079965     0.11000
H1404       H  0.88477688  0.44499294  0.71406185     0.11000
C1405       C  0.98785723  0.63736507  0.68287584    -0.15100
C1406       C  0.97083119  0.67248727  0.68431502     0.07000
C1407       C  0.98792484  0.70757794  0.68579104    -0.15100
C1408       C  0.02133908  0.70745284  0.68574864    -0.15100
C1409       C  0.03827933  0.67223693  0.68421137     0.07000
C1410       C  0.02111101  0.63724204  0.68282119    -0.15100
H1411       H  0.97547862  0.60979250  0.68181309     0.11000
H1412       H  0.97549469  0.73511903  0.68684717     0.11000
H1413       H  0.03389063  0.73490608  0.68677298     0.11000
H1414       H  0.03337684  0.60958769  0.68172837     0.11000
C1415       C  0.88338152  0.99890349  0.96572270    -0.15100
C1416       C  0.88101053  0.96555723  0.98543700     0.07000
C1417       C  0.88108201  0.96999798  0.52003482    -0.15100
C1418       C  0.88121379  0.00694543  0.53450050    -0.15100
C1419       C  0.88104104  0.04032627  0.51469997     0.07000
C1420       C  0.88325825  0.03587665  0.98019263    -0.15100
H1421       H  0.88337539  0.99654359  0.93909294     0.11000
H1422       H  0.87946161  0.94485953  0.53600915     0.11000
H1423       H  0.87943604  0.00933760  0.56106678     0.11000
H1424       H  0.88336598  0.06109321  0.96421744     0.11000
C1425       C  0.85491850  0.73487668  0.85351896    -0.15100
C1426       C  0.87368117  0.76879814  0.85447211     0.07000
C1427       C  0.89434844  0.77652395  0.82811933    -0.15100
C1428       C  0.89573813  0.75121887  0.80111967    -0.15100
C1429       C  0.87615908  0.71793909  0.79970485     0.07000
C1430       C  0.85597057  0.70991193  0.82637293    -0.15100
H1431       H  0.83892849  0.72789430  0.87362881     0.11000
H1432       H  0.90947018  0.80201236  0.82841892     0.11000
H1433       H  0.91127140  0.75860227  0.78073426     0.11000
H1434       H  0.84034724  0.68488206  0.82587978     0.11000
C1435       C  0.85240782  0.79404475  0.57552320    -0.15100
C1436       C  0.87385109  0.78750934  0.54959803     0.07000
C1437       C  0.89464331  0.75538246  0.55149856    -0.15100
C1438       C  0.89359618  0.73001515  0.57842372    -0.15100
C1439       C  0.87206168  0.73654781  0.60422720     0.07000
C1440       C  0.85170159  0.76902002  0.60264983    -0.15100
H1441       H  0.83571990  0.81802190  0.57453510     0.11000
H1442       H  0.91110345  0.74906807  0.53164075     0.11000
H1443       H  0.90984934  0.70558521  0.57923442     0.11000
H1444       H  0.83490882  0.77486846  0.62231858     0.11000
C1445       C  0.12658720  0.99910477  0.96459805    -0.15100
C1446       C  0.12768564  0.96561273  0.98425303     0.07000
C1447       C  0.12654958  0.96991909  0.01884302    -0.15100
C1448       C  0.12645851  0.00680117  0.53345198    -0.15100
C1449       C  0.12773698  0.04029063  0.51382236     0.07000
C1450       C  0.12674335  0.03601536  0.47921897    -0.15100
H1451       H  0.12754236  0.99685500  0.93797917     0.11000
H1452       H  0.12722589  0.94466343  0.03475879     0.11000
H1453       H  0.12729225  0.00901434  0.56007839     0.11000
H1454       H  0.12756649  0.06128617  0.46333006     0.11000
C1455       C  0.15350772  0.73321192  0.85396796    -0.15100
C1456       C  0.13533714  0.76766351  0.85443581     0.07000
C1457       C  0.11555189  0.77599636  0.82750573    -0.15100
C1458       C  0.11422049  0.75064827  0.80056775    -0.15100
C1459       C  0.13303078  0.71669421  0.79971359     0.07000
C1460       C  0.15256585  0.70818704  0.82681456    -0.15100
H1461       H  0.16888065  0.72581549  0.87449007     0.11000
H1462       H  0.10098985  0.80197444  0.82733170     0.11000
H1463       H  0.09930442  0.75848614  0.77980650     0.11000
H1464       H  0.16766335  0.68266524  0.82671106     0.11000
C1465       C  0.15593487  0.79490582  0.57577285    -0.15100
C1466       C  0.13453575  0.78821930  0.54979739     0.07000
C1467       C  0.11383881  0.75603114  0.55181724    -0.15100
C1468       C  0.11506039  0.73063307  0.57873952    -0.15100
C1469       C  0.13664601  0.73716097  0.60451809     0.07000
C1470       C  0.15677095  0.76986512  0.60295774    -0.15100
H1471       H  0.17251984  0.81897547  0.57475196     0.11000
H1472       H  0.09737101  0.74960989  0.53198870     0.11000
H1473       H  0.09893455  0.70608976  0.57952213     0.11000
H1474       H  0.17355100  0.77580227  0.62262098     0.11000
C1475       C  0.98753843  0.86825225  0.93279442    -0.15100
C1476       C  0.97040501  0.83336056  0.93579257     0.07000
C1477       C  0.98740398  0.79833367  0.93894102    -0.15100
C1478       C  0.02082660  0.79826953  0.93875395    -0.15100
C1479       C  0.03787732  0.83322922  0.93541021     0.07000
C1480       C  0.02079294  0.86818542  0.93258455    -0.15100
H1481       H  0.97524604  0.89578026  0.93044231     0.11000
H1482       H  0.97489573  0.77096867  0.94133356     0.11000
H1483       H  0.03329533  0.77085494  0.94102316     0.11000
H1484       H  0.03312441  0.89566272  0.93010318     0.11000
C1485       C  0.38306193  0.50666279  0.53226430    -0.15100
C1486       C  0.38043441  0.54009054  0.51270676     0.07000
C1487       C  0.38030605  0.53585425  0.97807925    -0.15100
C1488       C  0.38059879  0.49897430  0.96345573    -0.15100
C1489       C  0.38078747  0.46549925  0.98314629     0.07000
C1490       C  0.38311859  0.46979940  0.51765378    -0.15100
H1491       H  0.38317382  0.50885740  0.55890402     0.11000
H1492       H  0.37845023  0.56107667  0.96222631     0.11000
H1493       H  0.37868440  0.49668292  0.93689235     0.11000
H1494       H  0.38346851  0.44451351  0.53354692     0.11000
C1495       C  0.25855503  0.78762459  0.98265502    -0.15100
C1496       C  0.22848713  0.76943741  0.98269008     0.07000
C1497       C  0.22435162  0.73482329  0.00028415    -0.15100
C1498       C  0.24982100  0.71863804  0.51748770    -0.15100
C1499       C  0.27993865  0.73668945  0.51730025     0.07000
C1500       C  0.28404375  0.77141607  0.49984686    -0.15100
H1501       H  0.26231454  0.81473079  0.96965055     0.11000
H1502       H  0.20129259  0.72074119  0.00140897     0.11000
H1503       H  0.24604646  0.69153043  0.53048632     0.11000
H1504       H  0.30711891  0.78545521  0.49869422     0.11000
C1505       C  0.28328429  0.60339526  0.64060663    -0.15100
C1506       C  0.28296645  0.60549137  0.60591986     0.07000
C1507       C  0.25334044  0.60532752  0.58970699    -0.15100
C1508       C  0.22481578  0.60574277  0.60775402    -0.15100
C1509       C  0.22514704  0.60583214  0.64248634     0.07000
C1510       C  0.25473006  0.60329940  0.65865892    -0.15100
H1511       H  0.30567537  0.60354950  0.65389585     0.11000
H1512       H  0.25217452  0.60728290  0.56307621     0.11000
H1513       H  0.20248176  0.60774895  0.59446758     0.11000
H1514       H  0.25591057  0.60359499  0.68533709     0.11000
C1515       C  0.62636733  0.53546589  0.97956706    -0.15100
C1516       C  0.62811286  0.53989837  0.51410597     0.07000
C1517       C  0.62751373  0.50652721  0.53391094    -0.15100
C1518       C  0.62754105  0.46957801  0.51946011    -0.15100
C1519       C  0.62789563  0.46514219  0.98487540     0.07000
C1520       C  0.62612255  0.49850164  0.96511467    -0.15100
H1521       H  0.62665172  0.56066572  0.96357522     0.11000
H1522       H  0.62895412  0.50891059  0.56049940     0.11000
H1523       H  0.62877077  0.44441376  0.53544450     0.11000
H1524       H  0.62645103  0.49612707  0.93848686     0.11000
C1525       C  0.74924159  0.78707908  0.98060720    -0.15100
C1526       C  0.77961818  0.76979100  0.98231307     0.07000
C1527       C  0.78390635  0.73631255  0.50139353    -0.15100
C1528       C  0.75827819  0.72033523  0.51843475    -0.15100
C1529       C  0.72785578  0.73744119  0.51657161     0.07000
C1530       C  0.72356834  0.77103867  0.99761490    -0.15100
H1531       H  0.74539619  0.81332939  0.96640892     0.11000
H1532       H  0.80720815  0.72306824  0.50387098     0.11000
H1533       H  0.76218050  0.69412276  0.53266687     0.11000
H1534       H  0.70024885  0.78423785  0.99514622     0.11000
C1535       C  0.72550476  0.60678344  0.64083552    -0.15100
C1536       C  0.72578413  0.60701083  0.60610615     0.07000
C1537       C  0.75539822  0.60493428  0.58992387    -0.15100
C1538       C  0.78397954  0.60519602  0.60798596    -0.15100
C1539       C  0.78367547  0.60700568  0.64269830     0.07000
C1540       C  0.75404553  0.60653754  0.65888131    -0.15100
H1541       H  0.70317031  0.60847962  0.65414071     0.11000
H1542       H  0.75656049  0.60537541  0.56324603     0.11000
H1543       H  0.80636493  0.60562017  0.59469753     0.11000
H1544       H  0.75287158  0.60830156  0.68551906     0.11000
C1545       C  0.52087183  0.63674017  0.57048216    -0.15100
C1546       C  0.53793346  0.67127507  0.56497950     0.07000
C1547       C  0.52081892  0.70581221  0.55946557    -0.15100
C1548       C  0.48740078  0.70574111  0.55943664    -0.15100
C1549       C  0.47040022  0.67113108  0.56491188     0.07000
C1550       C  0.48757707  0.63666789  0.57044690    -0.15100
H1551       H  0.53325070  0.60961838  0.57487105     0.11000
H1552       H  0.53324206  0.73290134  0.05512863     0.11000
H1553       H  0.47488828  0.73277445  0.05508204     0.11000
H1554       H  0.47528823  0.60949076  0.57481830     0.11000
C1555       C  0.62670996  0.99914517  0.78443930    -0.15100
C1556       C  0.62728043  0.96575173  0.76464358     0.07000
C1557       C  0.62540494  0.97022713  0.73011866    -0.15100
C1558       C  0.62517880  0.00719627  0.71564847    -0.15100
C1559       C  0.62709540  0.04057079  0.73535924     0.07000
C1560       C  0.62675152  0.03612704  0.76995946    -0.15100
H1561       H  0.62819866  0.99675161  0.81102565     0.11000
H1562       H  0.62561434  0.94503633  0.71412772     0.11000
H1563       H  0.62544349  0.00954872  0.68901836     0.11000
H1564       H  0.62804443  0.06129513  0.78592260     0.11000
C1565       C  0.72462253  0.73502694  0.74879201    -0.15100
C1566       C  0.72859562  0.76897781  0.76731364     0.07000
C1567       C  0.75889309  0.78648226  0.76896264    -0.15100
C1568       C  0.78469158  0.77051843  0.75209976    -0.15100
C1569       C  0.78065035  0.73673389  0.73336088     0.07000
C1570       C  0.75039938  0.71909184  0.73191558    -0.15100
H1571       H  0.70143083  0.72147138  0.74649975     0.11000
H1572       H  0.76255017  0.81297970  0.78286465     0.11000
H1573       H  0.80788739  0.78407091  0.75435582     0.11000
H1574       H  0.74670045  0.69262692  0.71798151     0.11000
C1575       C  0.75474705  0.90008656  0.84006127    -0.15100
C1576       C  0.72523717  0.89817710  0.85646213     0.07000
C1577       C  0.72517595  0.89841383  0.89118684    -0.15100
C1578       C  0.75384652  0.89885598  0.90900964    -0.15100
C1579       C  0.78337467  0.89851031  0.89259700     0.07000
C1580       C  0.78344676  0.89996209  0.85789371    -0.15100
H1581       H  0.75573416  0.89950609  0.81337840     0.11000
H1582       H  0.70292813  0.89672362  0.90464760     0.11000
H1583       H  0.75286556  0.89724340  0.93566457     0.11000
H1584       H  0.80574385  0.89949667  0.84444876     0.11000
C1585       C  0.65554874  0.73610795  0.89646257    -0.15100
C1586       C  0.63539042  0.76874885  0.89486885     0.07000
C1587       C  0.61352831  0.77512546  0.92042877    -0.15100
C1588       C  0.61221399  0.74963682  0.94729619    -0.15100
C1589       C  0.63305400  0.71756738  0.94934436     0.07000
C1590       C  0.65454649  0.71096636  0.92347518    -0.15100
H1591       H  0.67251333  0.73028362  0.87694697     0.11000
H1592       H  0.59733744  0.79961213  0.91953439     0.11000
H1593       H  0.59564565  0.75591225  0.96706656     0.11000
H1594       H  0.67120325  0.68695936  0.92451287     0.11000
C1595       C  0.61398712  0.75412325  0.69820486    -0.15100
C1596       C  0.63380134  0.78718582  0.69967654     0.07000
C1597       C  0.65444590  0.79470029  0.67325934    -0.15100
C1598       C  0.65539272  0.76970365  0.64611648    -0.15100
C1599       C  0.63608483  0.73626277  0.64496387     0.07000
C1600       C  0.61528614  0.72878699  0.67124450    -0.15100
H1601       H  0.59818076  0.74704360  0.71844239     0.11000
H1602       H  0.67036165  0.81945018  0.67387267     0.11000
H1603       H  0.67158850  0.77635054  0.62609934     0.11000
H1604       H  0.59983212  0.70359756  0.67081569     0.11000
C1605       C  0.38183156  0.96988857  0.72893234    -0.15100
C1606       C  0.38065989  0.96551316  0.76351278     0.07000
C1607       C  0.38181107  0.99891841  0.78323721    -0.15100
C1608       C  0.38188857  0.03583725  0.76871413    -0.15100
C1609       C  0.38102193  0.04023875  0.73412495     0.07000
C1610       C  0.38213798  0.00682913  0.71440031    -0.15100
H1611       H  0.38106993  0.94467530  0.71298560     0.11000
H1612       H  0.38078676  0.99660984  0.80985184     0.11000
H1613       H  0.38113092  0.06103530  0.78468140     0.11000
H1614       H  0.38134788  0.00917118  0.68777975     0.11000
C1615       C  0.39378529  0.75214653  0.94887886    -0.15100
C1616       C  0.37421537  0.71885552  0.95005515     0.07000
C1617       C  0.35378628  0.71128023  0.92348512    -0.15100
C1618       C  0.35286217  0.73637971  0.89642606    -0.15100
C1619       C  0.37201075  0.76997167  0.89546735     0.07000
C1620       C  0.39253794  0.77758040  0.92195908    -0.15100
H1621       H  0.40936879  0.75928253  0.96928931     0.11000
H1622       H  0.33805230  0.68635056  0.92388686     0.11000
H1623       H  0.33685035  0.72962078  0.87627555     0.11000
H1624       H  0.40782904  0.80291918  0.92171811     0.11000
C1625       C  0.39395097  0.75269558  0.69897181    -0.15100
C1626       C  0.37475845  0.78633816  0.70000100     0.07000
C1627       C  0.35469950  0.79434248  0.67321454    -0.15100
C1628       C  0.35370343  0.76926647  0.64614106    -0.15100
C1629       C  0.37238460  0.73524824  0.64538159     0.07000
C1630       C  0.39261981  0.72728717  0.67204071    -0.15100
H1631       H  0.40926643  0.74524610  0.71952332     0.11000
H1632       H  0.33927849  0.81957384  0.67346894     0.11000
H1633       H  0.33795957  0.77635767  0.62584185     0.11000
H1634       H  0.40758949  0.70165453  0.67194690     0.11000
C1635       C  0.48751120  0.86812288  0.81903096    -0.15100
C1636       C  0.47036735  0.83344272  0.81465854     0.07000
C1637       C  0.48737339  0.79862643  0.81013444    -0.15100
C1638       C  0.52080259  0.79858637  0.81007619    -0.15100
C1639       C  0.53786497  0.83336109  0.81454757     0.07000
C1640       C  0.52077186  0.86808177  0.81898155    -0.15100
H1641       H  0.47522322  0.89547261  0.82257760     0.11000
H1642       H  0.47486416  0.77142288  0.80667040     0.11000
H1643       H  0.53326790  0.77135099  0.80658235     0.11000
H1644       H  0.53310070  0.89540247  0.82249482     0.11000
C1645       C  0.28454189  0.73569562  0.74734082    -0.15100
C1646       C  0.28013244  0.76888510  0.76676376     0.07000
C1647       C  0.24960789  0.78562029  0.76907854    -0.15100
C1648       C  0.22389257  0.76932508  0.75235778    -0.15100
C1649       C  0.22827216  0.73600001  0.73309147     0.07000
C1650       C  0.25882738  0.71940055  0.73061892    -0.15100
H1651       H  0.30797311  0.72294179  0.74437302     0.11000
H1652       H  0.24567222  0.81163217  0.78355302     0.11000
H1653       H  0.20047304  0.78212630  0.75527961     0.11000
H1654       H  0.26277212  0.69342654  0.71610010     0.11000
C1655       C  0.28309356  0.89978306  0.89034456    -0.15100
C1656       C  0.28301151  0.89872027  0.85563928     0.07000
C1657       C  0.25349526  0.89948050  0.83919616    -0.15100
C1658       C  0.22481802  0.89897202  0.85701894    -0.15100
C1659       C  0.22492925  0.89826999  0.89173966     0.07000
C1660       C  0.25443284  0.89983316  0.90815270    -0.15100
H1661       H  0.30537342  0.89899065  0.90381868     0.11000
H1662       H  0.25252611  0.89821249  0.81252845     0.11000
H1663       H  0.20254250  0.89758048  0.84357522     0.11000
H1664       H  0.25544560  0.89887676  0.93482863     0.11000
loop_ 
_geom_bond_atom_site_label_1 
_geom_bond_atom_site_label_2 
_geom_bond_distance 
_geom_bond_site_symmetry_2 
_ccdc_geom_bond_type 
O1           C16   1.270       .  A
O1           Al9   1.942       .  S
C2           O12   1.270       .  A
C2            O3   1.262       .  A
C2          C824   1.491       .  S
O3           Al5   1.896       .  S
O4            C6   1.272       .  A
O4           Al5   1.961       .  S
Al5          O13   1.968       .  S
Al5          O15   1.887       .  S
Al5          O14   1.773       .  S
C6           O19   1.256       .  A
C6          C787   1.480       .  S
O7           C17   1.269       .  A
O7           Al9   1.946       .  S
O8           C21   1.270       .  A
O8          Al18   1.953       .  S
Al9          O22   1.877       .  S
Al9          O19   1.868       .  S
Al9          O14   1.771       .  S
O10          C17   1.253       .  A
O10         Al18   1.860       .  S
O11          C20   1.258       .  A
O11         Al18   1.876       .  S
O12         Al18   1.946       .  S
O13          C20   1.275       .  A
O14         Al18   1.768       .  S
O15          C16   1.263       .  A
C16         C804   1.484       .  S
C17         C814   1.466       .  S
C20         C774   1.487       .  S
C21          O22   1.257       .  A
C21         C794   1.482       .  S
O23          C38   1.257       .  A
O23         Al31   1.877       .  S
C24          O34   1.262       .  A
C24          O25   1.270       .  A
C24         C744   1.492       .  S
O25         Al27   1.948       .  S
O26          C28   1.253       .  A
O26         Al27   1.860       .  S
Al27         O35   1.878       .  S
Al27         O37   1.954       .  S
Al27         O36   1.768       .  S
C28          O41   1.270       .  A
C28         C734   1.468       .  S
O29          C39   1.255       .  A
O29         Al31   1.868       .  S
O30          C43   1.263       .  A
O30         Al40   1.887       .  S
Al31         O44   1.943       .  S
Al31         O41   1.949       .  S
Al31         O36   1.771       .  S
O32          C39   1.271       .  A
O32         Al40   1.958       .  S
O33          C42   1.275       .  A
O33         Al40   1.968       .  S
O34         Al40   1.899       .  S
O35          C42   1.259       .  A
O36         Al40   1.773       .  S
O37          C38   1.270       .  A
C38         C764   1.482       .  S
C39         C754   1.478       .  S
C42         C724   1.487       .  S
C43          O44   1.270       .  A
C43         C807   1.484       .  S
O45          C60   1.270       .  A
O45         Al53   1.941       .  S
C46          O56   1.270       .  A
C46          O47   1.262       .  A
C46         C704   1.493       .  S
O47         Al49   1.898       .  S
O48          C50   1.272       .  A
O48         Al49   1.959       .  S
Al49         O57   1.967       .  S
Al49         O59   1.889       .  S
Al49         O58   1.772       .  S
C50          O63   1.256       .  A
C50         C767   1.480       .  S
O51          C61   1.270       .  A
O51         Al53   1.948       .  S
O52          C65   1.270       .  A
O52        Al894   1.950       .  S
Al53         O63   1.869       .  S
Al53        O898   1.879       .  S
Al53         O58   1.772       .  S
O54          C61   1.254       .  A
O54         Al62   1.859       .  S
O55          C64   1.258       .  A
O55         Al62   1.876       .  S
O56         Al62   1.948       .  S
O57          C64   1.275       .  A
O58         Al62   1.768       .  S
O59          C60   1.263       .  A
C60         C714   1.485       .  S
C61         C697   1.467       .  S
Al62        O884   1.950   1_554  S
C64         C684   1.486       .  S
C65          O66   1.257       .  A
C65         C757   1.481       .  S
O66        Al885   1.879       .  S
O67          C82   1.257       .  A
O67        Al907   1.878       .  S
C68          O78   1.261       .  A
C68          O69   1.269       .  A
C68         C674   1.491       .  S
O69         Al71   1.946       .  S
O70          C72   1.254       .  A
O70         Al71   1.860       .  S
Al71         O79   1.874       .  S
Al71        O913   1.952   1_554  S
Al71         O80   1.769       .  S
C72          O85   1.270       .  A
C72         C667   1.468       .  S
O73          C83   1.255       .  A
O73         Al75   1.866       .  S
O74          C87   1.263       .  A
O74         Al84   1.888       .  S
Al75         O88   1.942       .  S
Al75         O85   1.950       .  S
Al75        O899   1.878       .  S
Al75         O80   1.771       .  S
O76          C83   1.273       .  A
O76         Al84   1.963       .  S
O77          C86   1.276       .  A
O77         Al84   1.970       .  S
O78         Al84   1.898       .  S
O79          C86   1.258       .  A
O80         Al84   1.773       .  S
O81          C82   1.270       .  A
O81        Al903   1.952       .  S
C82         C784   1.481       .  S
C83         C797   1.481       .  S
C86         C654   1.487       .  S
C87          O88   1.270       .  A
C87         C717   1.485       .  S
O89         C104   1.269       .  A
O89         Al97   1.941       .  S
C90         O100   1.269       .  A
C90          O91   1.262       .  A
C90         C827   1.491       .  S
O91         Al93   1.899       .  S
O92          C94   1.273       .  A
O92         Al93   1.962       .  S
Al93        O101   1.973       .  S
Al93        O103   1.887       .  S
Al93        O102   1.772       .  S
C94         O107   1.256       .  A
C94         C624   1.482       .  S
O95         C105   1.270       .  A
O95         Al97   1.948       .  S
O96         C109   1.270       .  A
O96        Al938   1.955   1_554  S
Al97        O107   1.870       .  S
Al97        O942   1.879       .  S
Al97        O102   1.771       .  S
O98         C105   1.254       .  A
O98        Al106   1.860       .  S
O99         C108   1.258       .  A
O99        Al106   1.874       .  S
O100       Al106   1.945       .  S
O101        C108   1.276       .  A
O102       Al106   1.768       .  S
O103        C104   1.263       .  A
C104        C647   1.483       .  S
C105        C664   1.468       .  S
Al106       O928   1.955       .  S
C108        C614   1.488       .  S
C109        O110   1.257   1_554  A
C109        C634   1.484       .  S
O110       Al929   1.879       .  S
O111        C126   1.257   1_556  A
O111       Al951   1.876       .  S
C112        O122   1.262       .  A
C112        O113   1.270       .  A
C112        C747   1.492       .  S
O113       Al115   1.945       .  S
O114        C116   1.254       .  A
O114       Al115   1.860       .  S
Al115       O123   1.875       .  S
Al115       O957   1.953       .  S
Al115       O124   1.768       .  S
C116        O129   1.270       .  A
C116        C694   1.467       .  S
O117        C127   1.256       .  A
O117       Al119   1.868       .  S
O118        C131   1.263       .  A
O118       Al128   1.887       .  S
Al119       O132   1.942       .  S
Al119       O129   1.948       .  S
Al119       O943   1.876       .  S
Al119       O124   1.770       .  S
O120        C127   1.272       .  A
O120       Al128   1.963       .  S
O121        C130   1.275       .  A
O121       Al128   1.971       .  S
O122       Al128   1.900       .  S
O123        C130   1.258       .  A
O124       Al128   1.771       .  S
O125        C126   1.270       .  A
O125       Al947   1.953   1_554  S
C126        C604   1.481       .  S
C127        C594   1.482       .  S
C130        C584   1.488       .  S
C131        O132   1.270       .  A
C131        C644   1.483       .  S
O133        C148   1.270       .  A
O133       Al141   1.943       .  S
C134        O144   1.270       .  A
C134        O135   1.261       .  A
C134        C707   1.493       .  S
O135       Al137   1.898       .  S
O136        C138   1.272       .  A
O136       Al137   1.958       .  S
Al137       O145   1.969       .  S
Al137       O147   1.886       .  S
Al137       O146   1.772       .  S
C138        O151   1.256       .  A
C138        C607   1.478       .  S
O139        C149   1.270       .  A
O139       Al141   1.952       .  S
O140        C153   1.271       .  A
O140       Al150   1.955       .  S
Al141       O154   1.878       .  S
Al141       O151   1.868       .  S
Al141       O146   1.772       .  S
O142        C149   1.253       .  A
O142       Al150   1.858       .  S
O143        C152   1.258       .  A
O143       Al150   1.872       .  S
O144       Al150   1.949       .  S
O145        C152   1.275       .  A
O146       Al150   1.765       .  S
O147        C148   1.263       .  A
C148        C574   1.483       .  S
C149        C737   1.468       .  S
C152        C564   1.487       .  S
C153        O154   1.257       .  A
C153        C597   1.482       .  S
O155        C170   1.257       .  A
O155       Al163   1.878       .  S
C156        O166   1.262       .  A
C156        O157   1.271       .  A
C156        C677   1.491       .  S
O157       Al159   1.950       .  S
O158        C160   1.254       .  A
O158       Al159   1.861       .  S
Al159       O167   1.876       .  S
Al159       O169   1.954       .  S
Al159       O168   1.769       .  S
C160        O173   1.269       .  A
C160        C817   1.466       .  S
O161        C171   1.256       .  A
O161       Al163   1.873       .  S
O162        C175   1.263       .  A
O162       Al172   1.887       .  S
Al163       O176   1.940       .  S
Al163       O173   1.944       .  S
Al163       O168   1.771       .  S
O164        C171   1.272       .  A
O164       Al172   1.961       .  S
O165        C174   1.274       .  A
O165       Al172   1.968       .  S
O166       Al172   1.894       .  S
O167        C174   1.258       .  A
O168       Al172   1.772       .  S
O169        C170   1.270       .  A
C170        C627   1.482       .  S
C171        C637   1.481       .  S
C174        C554   1.485       .  S
C175        O176   1.269       .  A
C175        C577   1.482       .  S
O177        C192   1.270       .  A
O177       Al185   1.942       .  S
C178        O188   1.270       .  A
C178        O179   1.262       .  A
C178        C517   1.491       .  S
O179       Al181   1.900       .  S
O180        C182   1.272       .  A
O180       Al181   1.959       .  S
Al181       O189   1.968       .  S
Al181       O191   1.887       .  S
Al181       O190   1.770       .  S
C182        O195   1.256       .  A
C182        C524   1.479       .  S
O183        C193   1.270       .  A
O183       Al185   1.949       .  S
O184        C197   1.270       .  A
O184      Al1026   1.953   1_554  S
Al185       O195   1.866       .  S
Al185      O1030   1.873       .  S
Al185       O190   1.770       .  S
O186        C193   1.253       .  A
O186       Al194   1.859       .  S
O187        C196   1.258       .  A
O187       Al194   1.875       .  S
O188       Al194   1.945       .  S
O189        C196   1.275       .  A
O190       Al194   1.767       .  S
O191        C192   1.263       .  A
C192        C544   1.483       .  S
C193        C507   1.468       .  S
Al194      O1016   1.953       .  S
C196        C687   1.486       .  S
C197        O198   1.256   1_554  A
C197        C534   1.478       .  S
O198      Al1017   1.873       .  S
O199        C214   1.257   1_556  A
O199      Al1039   1.878       .  S
C200        O210   1.262       .  A
C200        O201   1.269       .  A
C200        C494   1.491       .  S
O201       Al203   1.944       .  S
O202        C204   1.254       .  A
O202       Al203   1.859       .  S
Al203       O211   1.874       .  S
Al203      O1045   1.949       .  S
Al203       O212   1.767       .  S
C204        O217   1.270       .  A
C204        C484   1.469       .  S
O205        C215   1.256       .  A
O205       Al207   1.870       .  S
O206        C219   1.264       .  A
O206       Al216   1.889       .  S
Al207       O220   1.940       .  S
Al207       O217   1.950       .  S
Al207      O1031   1.878       .  S
Al207       O212   1.771       .  S
O208        C215   1.271       .  A
O208       Al216   1.955       .  S
O209        C218   1.275       .  A
O209       Al216   1.969       .  S
O210       Al216   1.899       .  S
O211        C218   1.258       .  A
O212       Al216   1.772       .  S
O213        C214   1.269       .  A
O213      Al1035   1.949   1_554  S
C214        C474   1.481       .  S
C215        C464   1.479       .  S
C218        C657   1.486       .  S
C219        O220   1.270       .  A
C219        C547   1.483       .  S
O221        C236   1.271       .  A
O221       Al229   1.945       .  S
C222        O232   1.270       .  A
C222        O223   1.261       .  A
C222        C444   1.490       .  S
O223       Al225   1.894       .  S
O224        C226   1.272       .  A
O224       Al225   1.959       .  S
Al225       O233   1.970       .  S
Al225       O235   1.883       .  S
Al225       O234   1.772       .  S
C226        O239   1.256       .  A
C226        C477   1.478       .  S
O227        C237   1.270       .  A
O227       Al229   1.951       .  S
O228        C241   1.270       .  A
O228       Al238   1.950       .  S
Al229       O242   1.876       .  S
Al229       O239   1.870       .  S
Al229       O234   1.770       .  S
O230        C237   1.253       .  A
O230       Al238   1.858       .  S
O231        C240   1.257       .  A
O231       Al238   1.873       .  S
O232       Al238   1.947       .  S
O233        C240   1.275       .  A
O234       Al238   1.766       .  S
O235        C236   1.263       .  A
C236        C434   1.483       .  S
C237        C454   1.470       .  S
C240        C777   1.486       .  S
C241        O242   1.257       .  A
C241        C467   1.479       .  S
O243        C258   1.257       .  A
O243       Al251   1.876       .  S
C244        O254   1.261       .  A
C244        O245   1.270       .  A
C244        C417   1.492       .  S
O245       Al247   1.946       .  S
O246        C248   1.253       .  A
O246       Al247   1.860       .  S
Al247       O255   1.876       .  S
Al247       O257   1.950       .  S
Al247       O256   1.766       .  S
C248        O261   1.269       .  A
C248        C424   1.469       .  S
O249        C259   1.255       .  A
O249       Al251   1.865       .  S
O250        C263   1.263       .  A
O250       Al260   1.887       .  S
Al251       O264   1.941       .  S
Al251       O261   1.948       .  S
Al251       O256   1.772       .  S
O252        C259   1.272       .  A
O252       Al260   1.958       .  S
O253        C262   1.275       .  A
O253       Al260   1.968       .  S
O254       Al260   1.897       .  S
O255        C262   1.258       .  A
O256       Al260   1.772       .  S
O257        C258   1.270       .  A
C258        C527   1.479       .  S
C259        C537   1.477       .  S
C262        C727   1.488       .  S
C263        O264   1.270       .  A
C263        C437   1.483       .  S
O265        C280   1.270       .  A
O265       Al273   1.942       .  S
C266        O276   1.269       .  A
C266        O267   1.262       .  A
C266        C514   1.490       .  S
O267       Al269   1.898       .  S
O268        C270   1.271       .  A
O268       Al269   1.957       .  S
Al269       O277   1.965       .  S
Al269       O279   1.887       .  S
Al269       O278   1.772       .  S
C270        O283   1.256       .  A
C270        C394   1.479       .  S
O271        C281   1.270       .  A
O271       Al273   1.947       .  S
O272        C285   1.269       .  A
O272       Al282   1.948       .  S
Al273       O286   1.877       .  S
Al273       O283   1.870       .  S
Al273       O278   1.770       .  S
O274        C281   1.254       .  A
O274       Al282   1.860       .  S
O275        C284   1.259       .  A
O275       Al282   1.878       .  S
O276       Al282   1.944       .  S
O277        C284   1.274       .  A
O278       Al282   1.770       .  S
O279        C280   1.263       .  A
C280        C404   1.484       .  S
C281        C427   1.469       .  S
C284        C567   1.485       .  S
C285        O286   1.257       .  A
C285        C384   1.480       .  S
O287        C302   1.257       .  A
O287       Al295   1.875       .  S
C288        O298   1.262       .  A
C288        O289   1.269       .  A
C288        C497   1.489       .  S
O289       Al291   1.942       .  S
O290        C292   1.253       .  A
O290       Al291   1.859       .  S
Al291       O299   1.872       .  S
Al291       O301   1.947       .  S
Al291       O300   1.766       .  S
C292        O305   1.270       .  A
C292        C457   1.470       .  S
O293        C303   1.255       .  A
O293       Al295   1.864       .  S
O294        C307   1.263       .  A
O294       Al304   1.886       .  S
Al295       O308   1.945       .  S
Al295       O305   1.952       .  S
Al295       O300   1.770       .  S
O296        C303   1.271       .  A
O296       Al304   1.958       .  S
O297        C306   1.275       .  A
O297       Al304   1.970       .  S
O298       Al304   1.898       .  S
O299        C306   1.258       .  A
O300       Al304   1.772       .  S
O301        C302   1.269       .  A
C302        C364   1.478       .  S
C303        C374   1.477       .  S
C306        C557   1.487       .  S
C307        O308   1.271       .  A
C307        C407   1.484       .  S
O309        C324   1.270       .  A
O309       Al317   1.944       .  S
C310        O320   1.270       .  A
C310        O311   1.262       .  A
C310        C447   1.490       .  S
O311       Al313   1.897       .  S
O312        C314   1.272       .  A
O312       Al313   1.958       .  S
Al313       O321   1.970       .  S
Al313       O323   1.888       .  S
Al313       O322   1.771       .  S
C314        O327   1.255       .  A
C314        C367   1.478       .  S
O315        C325   1.270       .  A
O315       Al317   1.951       .  S
O316        C329   1.270       .  A
O316      Al1158   1.949       .  S
Al317       O327   1.865       .  S
Al317      O1162   1.875       .  S
Al317       O322   1.771       .  S
O318        C325   1.253       .  A
O318       Al326   1.860       .  S
O319        C328   1.258       .  A
O319       Al326   1.877       .  S
O320       Al326   1.945       .  S
O321        C328   1.275       .  A
O322       Al326   1.767       .  S
O323        C324   1.263       .  A
C324        C357   1.484       .  S
C325        C487   1.469       .  S
Al326      O1148   1.949   1_554  S
C328        C617   1.488       .  S
C329        O330   1.256       .  A
C329        C377   1.478       .  S
O330      Al1149   1.875       .  S
O331        C346   1.257       .  A
O331      Al1171   1.879       .  S
C332        O342   1.261       .  A
C332        O333   1.270       .  A
C332        C414   1.493       .  S
O333       Al335   1.949       .  S
O334        C336   1.253       .  A
O334       Al335   1.858       .  S
Al335       O343   1.877       .  S
Al335      O1177   1.951   1_554  S
Al335       O344   1.768       .  S
C336        O349   1.270       .  A
C336        C504   1.467       .  S
O337        C347   1.255       .  A
O337       Al339   1.868       .  S
O338        C351   1.263       .  A
O338       Al348   1.888       .  S
Al339       O352   1.943       .  S
Al339       O349   1.947       .  S
Al339      O1163   1.879       .  S
Al339       O344   1.772       .  S
O340        C347   1.271       .  A
O340       Al348   1.956       .  S
O341        C350   1.275       .  A
O341       Al348   1.967       .  S
O342       Al348   1.897       .  S
O343        C350   1.258       .  A
O344       Al348   1.771       .  S
O345        C346   1.270       .  A
O345      Al1167   1.951       .  S
C346        C397   1.482       .  S
C347        C387   1.477       .  S
C350        C587   1.486       .  S
C351        O352   1.270       .  A
C351        C354   1.484       .  S
C353        C354   1.406       .  A
C353        C358   1.396   1_655  A
C353        H359   1.083       .  S
C354        C355   1.407       .  A
C355        C356   1.403   1_655  A
C355       H1192   1.083       .  S
C356        C357   1.407       .  A
C356       H1193   1.083       .  S
C357        C358   1.405       .  A
C358        H362   1.083       .  S
H360       C1187   1.083       .  S
H361       C1188   1.083       .  S
C363        C364   1.401       .  A
C363        C368   1.396       .  A
C363        H369   1.083       .  S
C364        C365   1.410       .  A
C365        C366   1.399       .  A
C365        H370   1.083       .  S
C366        C367   1.401       .  A
C366        H371   1.083       .  S
C367        C368   1.408       .  A
C368        H372   1.083       .  S
C373        C374   1.401       .  A
C373        C378   1.399       .  A
C373        H379   1.083       .  S
C374        C375   1.408       .  A
C375        C376   1.395       .  A
C375        H380   1.083       .  S
C376        C377   1.401       .  A
C376        H381   1.083       .  S
C377        C378   1.411       .  A
C378        H382   1.083       .  S
C383        C384   1.410       .  A
C383        C388   1.398       .  A
C383        H389   1.083       .  S
C384        C385   1.403       .  A
C385        C386   1.397       .  A
C385        H390   1.083       .  S
C386        C387   1.408       .  A
C386        H391   1.083       .  S
C387        C388   1.401       .  A
C388        H392   1.083       .  S
C393        C394   1.408       .  A
C393        C398   1.397       .  A
C393        H399   1.083       .  S
C394        C395   1.402       .  A
C395        C396   1.400       .  A
C395        H400   1.083       .  S
C396        C397   1.411       .  A
C396        H401   1.083       .  S
C397        C398   1.402       .  A
C398        H402   1.083       .  S
C403        C404   1.405       .  A
C403        C408   1.395   1_655  A
C403        H409   1.083       .  S
C404        C405   1.407       .  A
C405        C406   1.403   1_655  A
C405        H410   1.083       .  S
C406        C407   1.407       .  A
C406        H411   1.083       .  S
C407        C408   1.405       .  A
C408        H412   1.083       .  S
C413        C414   1.407       .  A
C413        C418   1.405       .  A
C413        H419   1.083       .  S
C414        C415   1.409       .  A
C415        C416   1.403       .  A
C415        H420   1.083       .  S
C416        C417   1.406       .  A
C416        H421   1.083       .  S
C417        C418   1.409       .  A
C418        H422   1.083       .  S
C423        C424   1.408       .  A
C423        C428   1.392       .  A
C423        H429   1.083       .  S
C424        C425   1.400       .  A
C425        C426   1.393       .  A
C425        H430   1.083       .  S
C426        C427   1.409       .  A
C426        H431   1.083       .  S
C427        C428   1.400       .  A
C428        H432   1.083       .  S
C433        C434   1.405       .  A
C433        C438   1.395       .  A
C433        H439   1.083       .  S
C434        C435   1.406       .  A
C435        C436   1.403       .  A
C435        H440   1.083       .  S
C436        C437   1.407       .  A
C436        H441   1.083       .  S
C437        C438   1.405       .  A
C438        H442   1.083       .  S
C443        C444   1.408       .  A
C443        C448   1.403       .  A
C443        H449   1.083       .  S
C444        C445   1.406       .  A
C445        C446   1.403       .  A
C445        H450   1.083       .  S
C446        C447   1.408       .  A
C446        H451   1.083       .  S
C447        C448   1.406       .  A
C448        H452   1.083       .  S
C453        C454   1.399       .  A
C453        C458   1.393       .  A
C453        H459   1.083       .  S
C454        C455   1.409       .  A
C455        C456   1.393       .  A
C455        H460   1.083       .  S
C456        C457   1.399       .  A
C456        H461   1.083       .  S
C457        C458   1.409       .  A
C458        H462   1.083       .  S
C463        C464   1.409       .  A
C463        C468   1.397       .  A
C463        H469   1.083       .  S
C464        C465   1.401       .  A
C465        C466   1.398       .  A
C465        H470   1.083       .  S
C466        C467   1.410       .  A
C466        H471   1.083       .  S
C467        C468   1.401       .  A
C468        H472   1.083       .  S
C473        C474   1.410       .  A
C473        C478   1.399       .  A
C473        H479   1.083       .  S
C474        C475   1.403       .  A
C475        C476   1.397       .  A
C475        H480   1.083       .  S
C476        C477   1.408       .  A
C476        H481   1.083       .  S
C477        C478   1.401       .  A
C478        H482   1.083       .  S
C483        C488   1.393   1_556  A
C483       C1316   1.409       .  A
C483        H489   1.083       .  S
C484        C485   1.400       .  A
C484       C1315   1.409       .  A
C485        C486   1.393       .  A
C485        H490   1.083       .  S
C486       C1319   1.409       .  A
C486        H491   1.083       .  S
C487        C488   1.400       .  A
C487       C1318   1.409       .  A
C488        H492   1.083   1_554  S
C493        C494   1.408       .  A
C493        C498   1.402       .  A
C493        H499   1.083       .  S
C494        C495   1.407       .  A
C495        C496   1.404       .  A
C495        H500   1.083       .  S
C496        C497   1.408       .  A
C496        H501   1.083       .  S
C497        C498   1.406       .  A
C498        H502   1.083       .  S
C503        C504   1.399   1_556  A
C503        C508   1.392       .  A
C503        H509   1.083       .  S
C504       C1337   1.408       .  A
C505        C506   1.392       .  A
C505       C1336   1.408       .  A
C505        H510   1.083       .  S
C506        C507   1.399       .  A
C506        H511   1.083       .  S
C507       C1340   1.409       .  A
C508       C1339   1.409       .  A
C508        H512   1.083       .  S
C513        C514   1.407       .  A
C513        C518   1.404       .  A
C513        H519   1.083       .  S
C514        C515   1.407       .  A
C515        C516   1.402       .  A
C515        H520   1.083       .  S
C516        C517   1.406       .  A
C516        H521   1.083       .  S
C517        C518   1.408       .  A
C518        H522   1.083       .  S
C523        C524   1.409       .  A
C523        C528   1.396       .  A
C523        H529   1.083       .  S
C524        C525   1.402       .  A
C525        C526   1.400       .  A
C525        H530   1.083       .  S
C526        C527   1.411       .  A
C526        H531   1.083       .  S
C527        C528   1.401       .  A
C528        H532   1.083       .  S
C533        C534   1.411       .  A
C533        C538   1.398       .  A
C533        H539   1.083       .  S
C534        C535   1.401       .  A
C535        C536   1.396       .  A
C535        H540   1.083       .  S
C536        C537   1.409       .  A
C536        H541   1.083       .  S
C537        C538   1.401       .  A
C538        H542   1.083       .  S
C543        C544   1.405       .  A
C543        C548   1.395       .  A
C543        H549   1.083       .  S
C544        C545   1.407       .  A
C545        C546   1.402       .  A
C545        H550   1.083       .  S
C546        C547   1.407       .  A
C546        H551   1.083       .  S
C547        C548   1.405       .  A
C548        H552   1.083       .  S
C553        C554   1.411       .  A
C553        C558   1.401       .  A
C553        H559   1.083       .  S
C554        C555   1.402       .  A
C555        C556   1.401       .  A
C555        H560   1.083       .  S
C556        C557   1.412       .  A
C556        H561   1.083       .  S
C557        C558   1.402       .  A
C558        H562   1.083       .  S
C563        C564   1.403       .  A
C563        C568   1.402       .  A
C563        H569   1.083       .  S
C564        C565   1.411       .  A
C565        C566   1.400       .  A
C565        H570   1.083       .  S
C566        C567   1.401       .  A
C566        H571   1.083       .  S
C567        C568   1.411       .  A
C568        H572   1.083       .  S
C573        C574   1.405       .  A
C573        C578   1.395   1_655  A
C573        H579   1.083       .  S
C574        C575   1.406       .  A
C575        C576   1.402   1_655  A
C575        H580   1.083       .  S
C576        C577   1.407       .  A
C576        H581   1.083       .  S
C577        C578   1.405       .  A
C578        H582   1.083       .  S
C583        C584   1.402       .  A
C583        C588   1.402   1_565  A
C583        H589   1.083       .  S
C584       C1417   1.411       .  A
C585        C586   1.401   1_565  A
C585       C1416   1.411   1_554  A
C585        H590   1.083       .  S
C586        C587   1.402       .  A
C586        H591   1.083       .  S
C587       C1420   1.411   1_554  A
C588       C1419   1.411       .  A
C588        H592   1.083       .  S
C593        C594   1.409       .  A
C593        C598   1.397       .  A
C593        H599   1.083       .  S
C594        C595   1.402       .  A
C595        C596   1.401       .  A
C595        H600   1.083       .  S
C596        C597   1.411       .  A
C596        H601   1.083       .  S
C597        C598   1.401       .  A
C598        H602   1.083       .  S
C603        C604   1.402       .  A
C603        C608   1.397       .  A
C603        H609   1.083       .  S
C604        C605   1.411       .  A
C605        C606   1.399       .  A
C605        H610   1.083       .  S
C606        C607   1.401       .  A
C606        H611   1.083       .  S
C607        C608   1.408       .  A
C608        H612   1.083       .  S
C613        C614   1.402       .  A
C613       C1450   1.402   1_565  A
C613        H619   1.083       .  S
C614        C615   1.411       .  A
C615       C1448   1.401   1_565  A
C615        H620   1.083       .  S
C616        C617   1.402       .  A
C616       C1447   1.401   1_545  A
C616        H621   1.083       .  S
C617        C618   1.412   1_554  A
C618       C1445   1.402   1_545  A
C618        H622   1.083       .  S
C623        C624   1.410       .  A
C623        C628   1.399       .  A
C623        H629   1.083       .  S
C624        C625   1.401       .  A
C625        C626   1.399       .  A
C625        H630   1.083       .  S
C626        C627   1.411       .  A
C626        H631   1.083       .  S
C627        C628   1.402       .  A
C628        H632   1.083       .  S
C633        C634   1.403       .  A
C633        C638   1.400       .  A
C633        H639   1.083       .  S
C634        C635   1.410       .  A
C635        C636   1.399       .  A
C635        H640   1.083       .  S
C636        C637   1.401       .  A
C636        H641   1.083       .  S
C637        C638   1.409       .  A
C638        H642   1.083       .  S
C643        C644   1.405       .  A
C643        C648   1.395   1_655  A
C643        H649   1.083       .  S
C644        C645   1.407       .  A
C645        C646   1.402   1_655  A
C645        H650   1.083       .  S
C646        C647   1.407       .  A
C646        H651   1.083       .  S
C647        C648   1.405       .  A
C648        H652   1.083       .  S
C653        C654   1.402       .  A
C653        C658   1.401       .  A
C653        H659   1.083       .  S
C654       C1487   1.412   1_554  A
C655        C656   1.402       .  A
C655       C1486   1.412       .  A
C655        H660   1.083       .  S
C656        C657   1.402       .  A
C656        H661   1.083       .  S
C657       C1490   1.411       .  A
C658       C1489   1.411   1_554  A
C658        H662   1.083       .  S
C663        C664   1.409       .  A
C663       C1500   1.393       .  A
C663        H669   1.083       .  S
C664        C665   1.400       .  A
C665       C1498   1.392       .  A
C665        H670   1.083       .  S
C666        C667   1.408       .  A
C666       C1497   1.392       .  A
C666        H671   1.083       .  S
C667        C668   1.400   1_554  A
C668       C1495   1.393       .  A
C668        H672   1.083       .  S
C673        C674   1.408       .  A
C673        C678   1.404       .  A
C673        H679   1.083       .  S
C674        C675   1.406       .  A
C675        C676   1.403       .  A
C675        H680   1.083       .  S
C676        C677   1.408       .  A
C676        H681   1.083       .  S
C677        C678   1.406       .  A
C678        H682   1.083       .  S
C683        C688   1.401       .  A
C683       C1516   1.411       .  A
C683        H689   1.083       .  S
C684        C685   1.402       .  A
C684       C1515   1.411   1_554  A
C685        C686   1.401       .  A
C685        H690   1.083       .  S
C686       C1519   1.411   1_554  A
C686        H691   1.083       .  S
C687        C688   1.402       .  A
C687       C1518   1.411       .  A
C688        H692   1.083       .  S
C693        C694   1.408       .  A
C693        C698   1.393       .  A
C693        H699   1.083       .  S
C694       C1527   1.400       .  A
C695        C696   1.392       .  A
C695       C1526   1.400   1_554  A
C695        H700   1.083       .  S
C696        C697   1.408       .  A
C696        H701   1.083       .  S
C697       C1530   1.400   1_554  A
C698       C1529   1.400       .  A
C698        H702   1.083       .  S
C703        C704   1.408       .  A
C703        C708   1.403       .  A
C703        H709   1.083       .  S
C704        C705   1.407       .  A
C705        C706   1.405       .  A
C705        H710   1.083       .  S
C706        C707   1.409       .  A
C706        H711   1.083       .  S
C707        C708   1.406       .  A
C708        H712   1.083       .  S
C713        C714   1.406       .  A
C713        C718   1.397       .  A
C713        H719   1.083       .  S
C714        C715   1.407       .  A
C715        C716   1.402       .  A
C715       H1552   1.083       .  S
C716        C717   1.407       .  A
C716       H1553   1.083       .  S
C717        C718   1.406       .  A
C718        H722   1.083       .  S
H720       C1547   1.083       .  S
H721       C1548   1.083       .  S
C723        C724   1.403       .  A
C723        C728   1.402   1_565  A
C723        H729   1.083       .  S
C724        C725   1.411       .  A
C725        C726   1.401   1_565  A
C725        H730   1.083       .  S
C726        C727   1.402       .  A
C726        H731   1.083       .  S
C727        C728   1.411       .  A
C728        H732   1.083       .  S
C733        C734   1.400       .  A
C733        C738   1.393       .  A
C733        H739   1.083       .  S
C734        C735   1.409       .  A
C735        C736   1.393       .  A
C735        H740   1.083       .  S
C736        C737   1.400       .  A
C736        H741   1.083       .  S
C737        C738   1.408       .  A
C738        H742   1.083       .  S
C743        C744   1.407       .  A
C743        C748   1.404       .  A
C743        H749   1.083       .  S
C744        C745   1.408       .  A
C745        C746   1.403       .  A
C745        H750   1.083       .  S
C746        C747   1.407       .  A
C746        H751   1.083       .  S
C747        C748   1.408       .  A
C748        H752   1.083       .  S
C753        C754   1.408       .  A
C753        C758   1.397       .  A
C753        H759   1.083       .  S
C754        C755   1.401       .  A
C755        C756   1.400       .  A
C755        H760   1.083       .  S
C756        C757   1.411       .  A
C756        H761   1.083       .  S
C757        C758   1.402       .  A
C758        H762   1.083       .  S
C763        C764   1.411       .  A
C763        C768   1.400       .  A
C763        H769   1.083       .  S
C764        C765   1.402       .  A
C765        C766   1.398       .  A
C765        H770   1.083       .  S
C766        C767   1.409       .  A
C766        H771   1.083       .  S
C767        C768   1.401       .  A
C768        H772   1.083       .  S
C773        C774   1.411       .  A
C773        C778   1.402   1_565  A
C773        H779   1.083       .  S
C774        C775   1.402       .  A
C775        C776   1.401   1_565  A
C775        H780   1.083       .  S
C776        C777   1.411       .  A
C776        H781   1.083       .  S
C777        C778   1.402       .  A
C778        H782   1.083       .  S
C783        C784   1.411       .  A
C783        C788   1.400       .  A
C783        H789   1.083       .  S
C784        C785   1.401       .  A
C785        C786   1.397       .  A
C785        H790   1.083       .  S
C786        C787   1.409       .  A
C786        H791   1.083       .  S
C787        C788   1.402       .  A
C788        H792   1.083       .  S
C793        C794   1.411       .  A
C793        C798   1.401       .  A
C793        H799   1.083       .  S
C794        C795   1.401       .  A
C795        C796   1.397       .  A
C795        H800   1.083       .  S
C796        C797   1.409       .  A
C796        H801   1.083       .  S
C797        C798   1.401       .  A
C798        H802   1.083       .  S
C803        C804   1.405       .  A
C803        C808   1.396       .  A
C803        H809   1.083       .  S
C804        C805   1.407       .  A
C805        C806   1.403       .  A
C805        H810   1.083       .  S
C806        C807   1.407       .  A
C806        H811   1.083       .  S
C807        C808   1.405       .  A
C808        H812   1.083       .  S
C813        C814   1.400       .  A
C813        C818   1.392       .  A
C813        H819   1.083       .  S
C814        C815   1.407       .  A
C815        C816   1.392       .  A
C815        H820   1.084       .  S
C816        C817   1.400       .  A
C816        H821   1.083       .  S
C817        C818   1.407       .  A
C818        H822   1.083       .  S
C823        C824   1.408       .  A
C823        C828   1.403       .  A
C823        H829   1.083       .  S
C824        C825   1.407       .  A
C825        C826   1.404       .  A
C825        H830   1.083       .  S
C826        C827   1.408       .  A
C826        H831   1.083       .  S
C827        C828   1.406       .  A
C828        H832   1.083       .  S
O833        C848   1.270       .  A
O833       Al841   1.942       .  S
C834        O844   1.270       .  A
C834        O835   1.262       .  A
C834       C1656   1.491       .  S
O835       Al837   1.896       .  S
O836        C838   1.272       .  A
O836       Al837   1.961       .  S
Al837       O845   1.968       .  S
Al837       O847   1.887       .  S
Al837       O846   1.773       .  S
C838        O851   1.256       .  A
C838       C1619   1.480       .  S
O839        C849   1.269       .  A
O839       Al841   1.946       .  S
O840        C853   1.270       .  A
O840       Al850   1.953       .  S
Al841       O854   1.877       .  S
Al841       O851   1.868       .  S
Al841       O846   1.771       .  S
O842        C849   1.253       .  A
O842       Al850   1.860       .  S
O843        C852   1.258       .  A
O843       Al850   1.876       .  S
O844       Al850   1.946       .  S
O845        C852   1.275       .  A
O846       Al850   1.768       .  S
O847        C848   1.263       .  A
C848       C1636   1.484       .  S
C849       C1646   1.466       .  S
C852       C1606   1.487       .  S
C853        O854   1.257       .  A
C853       C1626   1.482       .  S
O855        C870   1.257       .  A
O855       Al863   1.877       .  S
C856        O866   1.262       .  A
C856        O857   1.270       .  A
C856       C1576   1.492       .  S
O857       Al859   1.948       .  S
O858        C860   1.253       .  A
O858       Al859   1.860       .  S
Al859       O867   1.878       .  S
Al859       O869   1.954       .  S
Al859       O868   1.768       .  S
C860        O873   1.270       .  A
C860       C1566   1.468       .  S
O861        C871   1.255       .  A
O861       Al863   1.868       .  S
O862        C875   1.263       .  A
O862       Al872   1.887       .  S
Al863       O876   1.943       .  S
Al863       O873   1.949       .  S
Al863       O868   1.771       .  S
O864        C871   1.271       .  A
O864       Al872   1.958       .  S
O865        C874   1.275       .  A
O865       Al872   1.968       .  S
O866       Al872   1.899       .  S
O867        C874   1.259       .  A
O868       Al872   1.773       .  S
O869        C870   1.270       .  A
C870       C1596   1.482       .  S
C871       C1586   1.478       .  S
C874       C1556   1.487       .  S
C875        O876   1.270       .  A
C875       C1639   1.484       .  S
O877        C892   1.270       .  A
O877       Al885   1.941       .  S
C878        O888   1.270       .  A
C878        O879   1.262       .  A
C878       C1536   1.493       .  S
O879       Al881   1.898       .  S
O880        C882   1.272       .  A
O880       Al881   1.959       .  S
Al881       O889   1.967       .  S
Al881       O891   1.889       .  S
Al881       O890   1.772       .  S
C882        O895   1.256       .  A
C882       C1599   1.480       .  S
O883        C893   1.270       .  A
O883       Al885   1.948       .  S
O884        C897   1.270       .  A
Al885       O895   1.869       .  S
Al885       O890   1.772       .  S
O886        C893   1.254       .  A
O886       Al894   1.859       .  S
O887        C896   1.258       .  A
O887       Al894   1.876       .  S
O888       Al894   1.948       .  S
O889        C896   1.275       .  A
O890       Al894   1.768       .  S
O891        C892   1.263       .  A
C892       C1546   1.485       .  S
C893       C1529   1.467       .  S
C896       C1516   1.486       .  S
C897        O898   1.257   1_556  A
C897       C1589   1.481       .  S
O899        C914   1.257   1_554  A
C900        O910   1.261       .  A
C900        O901   1.269       .  A
C900       C1506   1.491       .  S
O901       Al903   1.946       .  S
O902        C904   1.254       .  A
O902       Al903   1.860       .  S
Al903       O911   1.874       .  S
Al903       O912   1.769       .  S
C904        O917   1.270       .  A
C904       C1499   1.468       .  S
O905        C915   1.255       .  A
O905       Al907   1.866       .  S
O906        C919   1.263       .  A
O906       Al916   1.888       .  S
Al907       O920   1.942       .  S
Al907       O917   1.950       .  S
Al907       O912   1.771       .  S
O908        C915   1.273       .  A
O908       Al916   1.963       .  S
O909        C918   1.276       .  A
O909       Al916   1.970       .  S
O910       Al916   1.898       .  S
O911        C918   1.258       .  A
O912       Al916   1.773       .  S
O913        C914   1.270       .  A
C914       C1616   1.481       .  S
C915       C1629   1.481       .  S
C918       C1486   1.487       .  S
C919        O920   1.270       .  A
C919       C1549   1.485       .  S
O921        C936   1.269       .  A
O921       Al929   1.941       .  S
C922        O932   1.269       .  A
C922        O923   1.262       .  A
C922       C1659   1.491       .  S
O923       Al925   1.899       .  S
O924        C926   1.273       .  A
O924       Al925   1.962       .  S
Al925       O933   1.973       .  S
Al925       O935   1.887       .  S
Al925       O934   1.772       .  S
C926        O939   1.256       .  A
C926       C1456   1.482       .  S
O927        C937   1.270       .  A
O927       Al929   1.948       .  S
O928        C941   1.270       .  A
Al929       O939   1.870       .  S
Al929       O934   1.771       .  S
O930        C937   1.254       .  A
O930       Al938   1.860       .  S
O931        C940   1.258       .  A
O931       Al938   1.874       .  S
O932       Al938   1.945       .  S
O933        C940   1.276       .  A
O934       Al938   1.768       .  S
O935        C936   1.263       .  A
C936       C1479   1.483       .  S
C937       C1496   1.468       .  S
C940       C1446   1.488       .  S
C941        O942   1.257       .  A
C941       C1466   1.484       .  S
O943        C958   1.257       .  A
C944        O954   1.262       .  A
C944        O945   1.270       .  A
C944       C1579   1.492       .  S
O945       Al947   1.945       .  S
O946        C948   1.254       .  A
O946       Al947   1.860       .  S
Al947       O955   1.875       .  S
Al947       O956   1.768       .  S
C948        O961   1.270       .  A
C948       C1526   1.467       .  S
O949        C959   1.256       .  A
O949       Al951   1.868       .  S
O950        C963   1.263       .  A
O950       Al960   1.887       .  S
Al951       O964   1.942       .  S
Al951       O961   1.948       .  S
Al951       O956   1.770       .  S
O952        C959   1.272       .  A
O952       Al960   1.963       .  S
O953        C962   1.275       .  A
O953       Al960   1.971       .  S
O954       Al960   1.900       .  S
O955        C962   1.258       .  A
O956       Al960   1.771       .  S
O957        C958   1.270       .  A
C958       C1436   1.481       .  S
C959       C1426   1.482       .  S
C962       C1416   1.488       .  S
C963        O964   1.270       .  A
C963       C1476   1.483       .  S
O965        C980   1.270       .  A
O965       Al973   1.943       .  S
C966        O976   1.270       .  A
C966        O967   1.261       .  A
C966       C1539   1.493       .  S
O967       Al969   1.898       .  S
O968        C970   1.272       .  A
O968       Al969   1.958       .  S
Al969       O977   1.969       .  S
Al969       O979   1.886       .  S
Al969       O978   1.772       .  S
C970        O983   1.256       .  A
C970       C1439   1.478       .  S
O971        C981   1.270       .  A
O971       Al973   1.952       .  S
O972        C985   1.271       .  A
O972       Al982   1.955       .  S
Al973       O986   1.878       .  S
Al973       O983   1.868       .  S
Al973       O978   1.772       .  S
O974        C981   1.253       .  A
O974       Al982   1.858       .  S
O975        C984   1.258       .  A
O975       Al982   1.872       .  S
O976       Al982   1.949       .  S
O977        C984   1.275       .  A
O978       Al982   1.765       .  S
O979        C980   1.263       .  A
C980       C1406   1.483       .  S
C981       C1569   1.468       .  S
C984       C1396   1.487       .  S
C985        O986   1.257       .  A
C985       C1429   1.482       .  S
O987       C1002   1.257       .  A
O987       Al995   1.878       .  S
C988        O998   1.262       .  A
C988        O989   1.271       .  A
C988       C1509   1.491       .  S
O989       Al991   1.950       .  S
O990        C992   1.254       .  A
O990       Al991   1.861       .  S
Al991       O999   1.876       .  S
Al991      O1001   1.954       .  S
Al991      O1000   1.769       .  S
C992       O1005   1.269       .  A
C992       C1649   1.466       .  S
O993       C1003   1.256       .  A
O993       Al995   1.873       .  S
O994       C1007   1.263       .  A
O994      Al1004   1.887       .  S
Al995      O1008   1.940       .  S
Al995      O1005   1.944       .  S
Al995      O1000   1.771       .  S
O996       C1003   1.272       .  A
O996      Al1004   1.961       .  S
O997       C1006   1.274       .  A
O997      Al1004   1.968       .  S
O998      Al1004   1.894       .  S
O999       C1006   1.258       .  A
O1000     Al1004   1.772       .  S
O1001      C1002   1.270       .  A
C1002      C1459   1.482       .  S
C1003      C1469   1.481       .  S
C1006      C1386   1.485       .  S
C1007      O1008   1.269       .  A
C1007      C1409   1.482       .  S
O1009      C1024   1.270       .  A
O1009     Al1017   1.942       .  S
C1010      O1020   1.270       .  A
C1010      O1011   1.262       .  A
C1010      C1349   1.491       .  S
O1011     Al1013   1.900       .  S
O1012      C1014   1.272       .  A
O1012     Al1013   1.959       .  S
Al1013     O1021   1.968       .  S
Al1013     O1023   1.887       .  S
Al1013     O1022   1.770       .  S
C1014      O1027   1.256       .  A
C1014      C1356   1.479       .  S
O1015      C1025   1.270       .  A
O1015     Al1017   1.949       .  S
O1016      C1029   1.270       .  A
Al1017     O1027   1.866       .  S
Al1017     O1022   1.770       .  S
O1018      C1025   1.253       .  A
O1018     Al1026   1.859       .  S
O1019      C1028   1.258       .  A
O1019     Al1026   1.875       .  S
O1020     Al1026   1.945       .  S
O1021      C1028   1.275       .  A
O1022     Al1026   1.767       .  S
O1023      C1024   1.263       .  A
C1024      C1376   1.483       .  S
C1025      C1339   1.468       .  S
C1028      C1519   1.486       .  S
C1029      O1030   1.256       .  A
C1029      C1366   1.478       .  S
O1031      C1046   1.257       .  A
C1032      O1042   1.262       .  A
C1032      O1033   1.269       .  A
C1032      C1326   1.491       .  S
O1033     Al1035   1.944       .  S
O1034      C1036   1.254       .  A
O1034     Al1035   1.859       .  S
Al1035     O1043   1.874       .  S
Al1035     O1044   1.767       .  S
C1036      O1049   1.270       .  A
C1036      C1316   1.469       .  S
O1037      C1047   1.256       .  A
O1037     Al1039   1.870       .  S
O1038      C1051   1.264       .  A
O1038     Al1048   1.889       .  S
Al1039     O1052   1.940       .  S
Al1039     O1049   1.950       .  S
Al1039     O1044   1.771       .  S
O1040      C1047   1.271       .  A
O1040     Al1048   1.955       .  S
O1041      C1050   1.275       .  A
O1041     Al1048   1.969       .  S
O1042     Al1048   1.899       .  S
O1043      C1050   1.258       .  A
O1044     Al1048   1.772       .  S
O1045      C1046   1.269       .  A
C1046      C1306   1.481       .  S
C1047      C1296   1.479       .  S
C1050      C1489   1.486       .  S
C1051      O1052   1.270       .  A
C1051      C1379   1.483       .  S
O1053      C1068   1.271       .  A
O1053     Al1061   1.945       .  S
C1054      O1064   1.270       .  A
C1054      O1055   1.261       .  A
C1054      C1276   1.490       .  S
O1055     Al1057   1.894       .  S
O1056      C1058   1.272       .  A
O1056     Al1057   1.959       .  S
Al1057     O1065   1.970       .  S
Al1057     O1067   1.883       .  S
Al1057     O1066   1.772       .  S
C1058      O1071   1.256       .  A
C1058      C1309   1.478       .  S
O1059      C1069   1.270       .  A
O1059     Al1061   1.951       .  S
O1060      C1073   1.270       .  A
O1060     Al1070   1.950       .  S
Al1061     O1074   1.876       .  S
Al1061     O1071   1.870       .  S
Al1061     O1066   1.770       .  S
O1062      C1069   1.253       .  A
O1062     Al1070   1.858       .  S
O1063      C1072   1.257       .  A
O1063     Al1070   1.873       .  S
O1064     Al1070   1.947       .  S
O1065      C1072   1.275       .  A
O1066     Al1070   1.766       .  S
O1067      C1068   1.263       .  A
C1068      C1266   1.483       .  S
C1069      C1286   1.470       .  S
C1072      C1609   1.486       .  S
C1073      O1074   1.257       .  A
C1073      C1299   1.479       .  S
O1075      C1090   1.257       .  A
O1075     Al1083   1.876       .  S
C1076      O1086   1.261       .  A
C1076      O1077   1.270       .  A
C1076      C1249   1.492       .  S
O1077     Al1079   1.946       .  S
O1078      C1080   1.253       .  A
O1078     Al1079   1.860       .  S
Al1079     O1087   1.876       .  S
Al1079     O1089   1.950       .  S
Al1079     O1088   1.766       .  S
C1080      O1093   1.269       .  A
C1080      C1256   1.469       .  S
O1081      C1091   1.255       .  A
O1081     Al1083   1.865       .  S
O1082      C1095   1.263       .  A
O1082     Al1092   1.887       .  S
Al1083     O1096   1.941       .  S
Al1083     O1093   1.948       .  S
Al1083     O1088   1.772       .  S
O1084      C1091   1.272       .  A
O1084     Al1092   1.958       .  S
O1085      C1094   1.275       .  A
O1085     Al1092   1.968       .  S
O1086     Al1092   1.897       .  S
O1087      C1094   1.258       .  A
O1088     Al1092   1.772       .  S
O1089      C1090   1.270       .  A
C1090      C1359   1.479       .  S
C1091      C1369   1.477       .  S
C1094      C1559   1.488       .  S
C1095      O1096   1.270       .  A
C1095      C1269   1.483       .  S
O1097      C1112   1.270       .  A
O1097     Al1105   1.942       .  S
C1098      O1108   1.269       .  A
C1098      O1099   1.262       .  A
C1098      C1346   1.490       .  S
O1099     Al1101   1.898       .  S
O1100      C1102   1.271       .  A
O1100     Al1101   1.957       .  S
Al1101     O1109   1.965       .  S
Al1101     O1111   1.887       .  S
Al1101     O1110   1.772       .  S
C1102      O1115   1.256       .  A
C1102      C1226   1.479       .  S
O1103      C1113   1.270       .  A
O1103     Al1105   1.947       .  S
O1104      C1117   1.269       .  A
O1104     Al1114   1.948       .  S
Al1105     O1118   1.877       .  S
Al1105     O1115   1.870       .  S
Al1105     O1110   1.770       .  S
O1106      C1113   1.254       .  A
O1106     Al1114   1.860       .  S
O1107      C1116   1.259       .  A
O1107     Al1114   1.878       .  S
O1108     Al1114   1.944       .  S
O1109      C1116   1.274       .  A
O1110     Al1114   1.770       .  S
O1111      C1112   1.263       .  A
C1112      C1236   1.484       .  S
C1113      C1259   1.469       .  S
C1116      C1399   1.485       .  S
C1117      O1118   1.257       .  A
C1117      C1216   1.480       .  S
O1119      C1134   1.257       .  A
O1119     Al1127   1.875       .  S
C1120      O1130   1.262       .  A
C1120      O1121   1.269       .  A
C1120      C1329   1.489       .  S
O1121     Al1123   1.942       .  S
O1122      C1124   1.253       .  A
O1122     Al1123   1.859       .  S
Al1123     O1131   1.872       .  S
Al1123     O1133   1.947       .  S
Al1123     O1132   1.766       .  S
C1124      O1137   1.270       .  A
C1124      C1289   1.470       .  S
O1125      C1135   1.255       .  A
O1125     Al1127   1.864       .  S
O1126      C1139   1.263       .  A
O1126     Al1136   1.886       .  S
Al1127     O1140   1.945       .  S
Al1127     O1137   1.952       .  S
Al1127     O1132   1.770       .  S
O1128      C1135   1.271       .  A
O1128     Al1136   1.958       .  S
O1129      C1138   1.275       .  A
O1129     Al1136   1.970       .  S
O1130     Al1136   1.898       .  S
O1131      C1138   1.258       .  A
O1132     Al1136   1.772       .  S
O1133      C1134   1.269       .  A
C1134      C1196   1.478       .  S
C1135      C1206   1.477       .  S
C1138      C1389   1.487       .  S
C1139      O1140   1.271       .  A
C1139      C1239   1.484       .  S
O1141      C1156   1.270       .  A
O1141     Al1149   1.944       .  S
C1142      O1152   1.270       .  A
C1142      O1143   1.262       .  A
C1142      C1279   1.490       .  S
O1143     Al1145   1.897       .  S
O1144      C1146   1.272       .  A
O1144     Al1145   1.958       .  S
Al1145     O1153   1.970       .  S
Al1145     O1155   1.888       .  S
Al1145     O1154   1.771       .  S
C1146      O1159   1.255       .  A
C1146      C1199   1.478       .  S
O1147      C1157   1.270       .  A
O1147     Al1149   1.951       .  S
O1148      C1161   1.270       .  A
Al1149     O1159   1.865       .  S
Al1149     O1154   1.771       .  S
O1150      C1157   1.253       .  A
O1150     Al1158   1.860       .  S
O1151      C1160   1.258       .  A
O1151     Al1158   1.877       .  S
O1152     Al1158   1.945       .  S
O1153      C1160   1.275       .  A
O1154     Al1158   1.767       .  S
O1155      C1156   1.263       .  A
C1156      C1189   1.484       .  S
C1157      C1319   1.469       .  S
C1160      C1449   1.488       .  S
C1161      O1162   1.256   1_556  A
C1161      C1209   1.478       .  S
O1163      C1178   1.257   1_554  A
C1164      O1174   1.261       .  A
C1164      O1165   1.270       .  A
C1164      C1246   1.493       .  S
O1165     Al1167   1.949       .  S
O1166      C1168   1.253       .  A
O1166     Al1167   1.858       .  S
Al1167     O1175   1.877       .  S
Al1167     O1176   1.768       .  S
C1168      O1181   1.270       .  A
C1168      C1336   1.467       .  S
O1169      C1179   1.255       .  A
O1169     Al1171   1.868       .  S
O1170      C1183   1.263       .  A
O1170     Al1180   1.888       .  S
Al1171     O1184   1.943       .  S
Al1171     O1181   1.947       .  S
Al1171     O1176   1.772       .  S
O1172      C1179   1.271       .  A
O1172     Al1180   1.956       .  S
O1173      C1182   1.275       .  A
O1173     Al1180   1.967       .  S
O1174     Al1180   1.897       .  S
O1175      C1182   1.258       .  A
O1176     Al1180   1.771       .  S
O1177      C1178   1.270       .  A
C1178      C1229   1.482       .  S
C1179      C1219   1.477       .  S
C1182      C1419   1.486       .  S
C1183      O1184   1.270       .  A
C1183      C1186   1.484       .  S
C1185      C1186   1.406       .  A
C1185      C1190   1.396   1_655  A
C1185      H1191   1.083       .  S
C1186      C1187   1.407       .  A
C1187      C1188   1.403   1_655  A
C1188      C1189   1.407       .  A
C1189      C1190   1.405       .  A
C1190      H1194   1.083       .  S
C1195      C1196   1.401       .  A
C1195      C1200   1.396       .  A
C1195      H1201   1.083       .  S
C1196      C1197   1.410       .  A
C1197      C1198   1.399       .  A
C1197      H1202   1.083       .  S
C1198      C1199   1.401       .  A
C1198      H1203   1.083       .  S
C1199      C1200   1.408       .  A
C1200      H1204   1.083       .  S
C1205      C1206   1.401       .  A
C1205      C1210   1.399       .  A
C1205      H1211   1.083       .  S
C1206      C1207   1.408       .  A
C1207      C1208   1.395       .  A
C1207      H1212   1.083       .  S
C1208      C1209   1.401       .  A
C1208      H1213   1.083       .  S
C1209      C1210   1.411       .  A
C1210      H1214   1.083       .  S
C1215      C1216   1.410       .  A
C1215      C1220   1.398       .  A
C1215      H1221   1.083       .  S
C1216      C1217   1.403       .  A
C1217      C1218   1.397       .  A
C1217      H1222   1.083       .  S
C1218      C1219   1.408       .  A
C1218      H1223   1.083       .  S
C1219      C1220   1.401       .  A
C1220      H1224   1.083       .  S
C1225      C1226   1.408       .  A
C1225      C1230   1.397       .  A
C1225      H1231   1.083       .  S
C1226      C1227   1.402       .  A
C1227      C1228   1.400       .  A
C1227      H1232   1.083       .  S
C1228      C1229   1.411       .  A
C1228      H1233   1.083       .  S
C1229      C1230   1.402       .  A
C1230      H1234   1.083       .  S
C1235      C1236   1.405       .  A
C1235      C1240   1.395   1_655  A
C1235      H1241   1.083       .  S
C1236      C1237   1.407       .  A
C1237      C1238   1.403   1_655  A
C1237      H1242   1.083       .  S
C1238      C1239   1.407       .  A
C1238      H1243   1.083       .  S
C1239      C1240   1.405       .  A
C1240      H1244   1.083       .  S
C1245      C1246   1.407       .  A
C1245      C1250   1.405       .  A
C1245      H1251   1.083       .  S
C1246      C1247   1.409       .  A
C1247      C1248   1.403       .  A
C1247      H1252   1.083       .  S
C1248      C1249   1.406       .  A
C1248      H1253   1.083       .  S
C1249      C1250   1.409       .  A
C1250      H1254   1.083       .  S
C1255      C1256   1.408       .  A
C1255      C1260   1.392       .  A
C1255      H1261   1.083       .  S
C1256      C1257   1.400       .  A
C1257      C1258   1.393       .  A
C1257      H1262   1.083       .  S
C1258      C1259   1.409       .  A
C1258      H1263   1.083       .  S
C1259      C1260   1.400       .  A
C1260      H1264   1.083       .  S
C1265      C1266   1.405       .  A
C1265      C1270   1.395       .  A
C1265      H1271   1.083       .  S
C1266      C1267   1.406       .  A
C1267      C1268   1.403       .  A
C1267      H1272   1.083       .  S
C1268      C1269   1.407       .  A
C1268      H1273   1.083       .  S
C1269      C1270   1.405       .  A
C1270      H1274   1.083       .  S
C1275      C1276   1.408       .  A
C1275      C1280   1.403       .  A
C1275      H1281   1.083       .  S
C1276      C1277   1.406       .  A
C1277      C1278   1.403       .  A
C1277      H1282   1.083       .  S
C1278      C1279   1.408       .  A
C1278      H1283   1.083       .  S
C1279      C1280   1.406       .  A
C1280      H1284   1.083       .  S
C1285      C1286   1.399       .  A
C1285      C1290   1.393       .  A
C1285      H1291   1.083       .  S
C1286      C1287   1.409       .  A
C1287      C1288   1.393       .  A
C1287      H1292   1.083       .  S
C1288      C1289   1.399       .  A
C1288      H1293   1.083       .  S
C1289      C1290   1.409       .  A
C1290      H1294   1.083       .  S
C1295      C1296   1.409       .  A
C1295      C1300   1.397       .  A
C1295      H1301   1.083       .  S
C1296      C1297   1.401       .  A
C1297      C1298   1.398       .  A
C1297      H1302   1.083       .  S
C1298      C1299   1.410       .  A
C1298      H1303   1.083       .  S
C1299      C1300   1.401       .  A
C1300      H1304   1.083       .  S
C1305      C1306   1.410       .  A
C1305      C1310   1.399       .  A
C1305      H1311   1.083       .  S
C1306      C1307   1.403       .  A
C1307      C1308   1.397       .  A
C1307      H1312   1.083       .  S
C1308      C1309   1.408       .  A
C1308      H1313   1.083       .  S
C1309      C1310   1.401       .  A
C1310      H1314   1.083       .  S
C1315      C1320   1.393       .  A
C1315      H1321   1.083       .  S
C1316      C1317   1.400   1_556  A
C1317      C1318   1.393       .  A
C1317      H1322   1.083       .  S
C1318      H1323   1.083       .  S
C1319      C1320   1.400       .  A
C1320      H1324   1.083       .  S
C1325      C1326   1.408       .  A
C1325      C1330   1.402       .  A
C1325      H1331   1.083       .  S
C1326      C1327   1.407       .  A
C1327      C1328   1.404       .  A
C1327      H1332   1.083       .  S
C1328      C1329   1.408       .  A
C1328      H1333   1.083       .  S
C1329      C1330   1.406       .  A
C1330      H1334   1.083       .  S
C1335      C1336   1.399       .  A
C1335      C1340   1.392       .  A
C1335      H1341   1.083       .  S
C1337      C1338   1.392   1_554  A
C1337      H1342   1.083       .  S
C1338      C1339   1.399       .  A
C1338      H1343   1.083   1_556  S
C1340      H1344   1.083       .  S
C1345      C1346   1.407       .  A
C1345      C1350   1.404       .  A
C1345      H1351   1.083       .  S
C1346      C1347   1.407       .  A
C1347      C1348   1.402       .  A
C1347      H1352   1.083       .  S
C1348      C1349   1.406       .  A
C1348      H1353   1.083       .  S
C1349      C1350   1.408       .  A
C1350      H1354   1.083       .  S
C1355      C1356   1.409       .  A
C1355      C1360   1.396       .  A
C1355      H1361   1.083       .  S
C1356      C1357   1.402       .  A
C1357      C1358   1.400       .  A
C1357      H1362   1.083       .  S
C1358      C1359   1.411       .  A
C1358      H1363   1.083       .  S
C1359      C1360   1.401       .  A
C1360      H1364   1.083       .  S
C1365      C1366   1.411       .  A
C1365      C1370   1.398       .  A
C1365      H1371   1.083       .  S
C1366      C1367   1.401       .  A
C1367      C1368   1.396       .  A
C1367      H1372   1.083       .  S
C1368      C1369   1.409       .  A
C1368      H1373   1.083       .  S
C1369      C1370   1.401       .  A
C1370      H1374   1.083       .  S
C1375      C1376   1.405       .  A
C1375      C1380   1.395       .  A
C1375      H1381   1.083       .  S
C1376      C1377   1.407       .  A
C1377      C1378   1.402       .  A
C1377      H1382   1.083       .  S
C1378      C1379   1.407       .  A
C1378      H1383   1.083       .  S
C1379      C1380   1.405       .  A
C1380      H1384   1.083       .  S
C1385      C1386   1.411       .  A
C1385      C1390   1.401       .  A
C1385      H1391   1.083       .  S
C1386      C1387   1.402       .  A
C1387      C1388   1.401       .  A
C1387      H1392   1.083       .  S
C1388      C1389   1.412       .  A
C1388      H1393   1.083       .  S
C1389      C1390   1.402       .  A
C1390      H1394   1.083       .  S
C1395      C1396   1.403       .  A
C1395      C1400   1.402       .  A
C1395      H1401   1.083       .  S
C1396      C1397   1.411       .  A
C1397      C1398   1.400       .  A
C1397      H1402   1.083       .  S
C1398      C1399   1.401       .  A
C1398      H1403   1.083       .  S
C1399      C1400   1.411       .  A
C1400      H1404   1.083       .  S
C1405      C1406   1.405       .  A
C1405      C1410   1.395   1_655  A
C1405      H1411   1.083       .  S
C1406      C1407   1.406       .  A
C1407      C1408   1.402   1_655  A
C1407      H1412   1.083       .  S
C1408      C1409   1.407       .  A
C1408      H1413   1.083       .  S
C1409      C1410   1.405       .  A
C1410      H1414   1.083       .  S
C1415      C1416   1.402       .  A
C1415      C1420   1.402   1_565  A
C1415      H1421   1.083       .  S
C1417      C1418   1.401   1_565  A
C1417      H1422   1.083       .  S
C1418      C1419   1.402       .  A
C1418      H1423   1.083       .  S
C1420      H1424   1.083       .  S
C1425      C1426   1.409       .  A
C1425      C1430   1.397       .  A
C1425      H1431   1.083       .  S
C1426      C1427   1.402       .  A
C1427      C1428   1.401       .  A
C1427      H1432   1.083       .  S
C1428      C1429   1.411       .  A
C1428      H1433   1.083       .  S
C1429      C1430   1.401       .  A
C1430      H1434   1.083       .  S
C1435      C1436   1.402       .  A
C1435      C1440   1.397       .  A
C1435      H1441   1.083       .  S
C1436      C1437   1.411       .  A
C1437      C1438   1.399       .  A
C1437      H1442   1.083       .  S
C1438      C1439   1.401       .  A
C1438      H1443   1.083       .  S
C1439      C1440   1.408       .  A
C1440      H1444   1.083       .  S
C1445      C1446   1.402       .  A
C1445      H1451   1.083       .  S
C1446      C1447   1.411   1_556  A
C1447      H1452   1.083       .  S
C1448      C1449   1.402       .  A
C1448      H1453   1.083       .  S
C1449      C1450   1.412       .  A
C1450      H1454   1.083       .  S
C1455      C1456   1.410       .  A
C1455      C1460   1.399       .  A
C1455      H1461   1.083       .  S
C1456      C1457   1.401       .  A
C1457      C1458   1.399       .  A
C1457      H1462   1.083       .  S
C1458      C1459   1.411       .  A
C1458      H1463   1.083       .  S
C1459      C1460   1.402       .  A
C1460      H1464   1.083       .  S
C1465      C1466   1.403       .  A
C1465      C1470   1.400       .  A
C1465      H1471   1.083       .  S
C1466      C1467   1.410       .  A
C1467      C1468   1.399       .  A
C1467      H1472   1.083       .  S
C1468      C1469   1.401       .  A
C1468      H1473   1.083       .  S
C1469      C1470   1.409       .  A
C1470      H1474   1.083       .  S
C1475      C1476   1.405       .  A
C1475      C1480   1.395   1_655  A
C1475      H1481   1.083       .  S
C1476      C1477   1.407       .  A
C1477      C1478   1.402   1_655  A
C1477      H1482   1.083       .  S
C1478      C1479   1.407       .  A
C1478      H1483   1.083       .  S
C1479      C1480   1.405       .  A
C1480      H1484   1.083       .  S
C1485      C1486   1.402       .  A
C1485      C1490   1.401       .  A
C1485      H1491   1.083       .  S
C1487      C1488   1.402       .  A
C1487      H1492   1.083       .  S
C1488      C1489   1.402       .  A
C1488      H1493   1.083       .  S
C1490      H1494   1.083       .  S
C1495      C1496   1.409       .  A
C1495      H1501   1.083       .  S
C1496      C1497   1.400   1_556  A
C1497      H1502   1.083       .  S
C1498      C1499   1.408       .  A
C1498      H1503   1.083       .  S
C1499      C1500   1.400       .  A
C1500      H1504   1.083       .  S
C1505      C1506   1.408       .  A
C1505      C1510   1.404       .  A
C1505      H1511   1.083       .  S
C1506      C1507   1.406       .  A
C1507      C1508   1.403       .  A
C1507      H1512   1.083       .  S
C1508      C1509   1.408       .  A
C1508      H1513   1.083       .  S
C1509      C1510   1.406       .  A
C1510      H1514   1.083       .  S
C1515      C1520   1.401       .  A
C1515      H1521   1.083       .  S
C1516      C1517   1.402       .  A
C1517      C1518   1.401       .  A
C1517      H1522   1.083       .  S
C1518      H1523   1.083       .  S
C1519      C1520   1.402       .  A
C1520      H1524   1.083       .  S
C1525      C1526   1.408       .  A
C1525      C1530   1.393       .  A
C1525      H1531   1.083       .  S
C1527      C1528   1.392       .  A
C1527      H1532   1.083       .  S
C1528      C1529   1.408       .  A
C1528      H1533   1.083       .  S
C1530      H1534   1.083       .  S
C1535      C1536   1.408       .  A
C1535      C1540   1.403       .  A
C1535      H1541   1.083       .  S
C1536      C1537   1.407       .  A
C1537      C1538   1.405       .  A
C1537      H1542   1.083       .  S
C1538      C1539   1.409       .  A
C1538      H1543   1.083       .  S
C1539      C1540   1.406       .  A
C1540      H1544   1.083       .  S
C1545      C1546   1.406       .  A
C1545      C1550   1.397       .  A
C1545      H1551   1.083       .  S
C1546      C1547   1.407       .  A
C1547      C1548   1.402       .  A
C1548      C1549   1.407       .  A
C1549      C1550   1.406       .  A
C1550      H1554   1.083       .  S
C1555      C1556   1.403       .  A
C1555      C1560   1.402   1_565  A
C1555      H1561   1.083       .  S
C1556      C1557   1.411       .  A
C1557      C1558   1.401   1_565  A
C1557      H1562   1.083       .  S
C1558      C1559   1.402       .  A
C1558      H1563   1.083       .  S
C1559      C1560   1.411       .  A
C1560      H1564   1.083       .  S
C1565      C1566   1.400       .  A
C1565      C1570   1.393       .  A
C1565      H1571   1.083       .  S
C1566      C1567   1.409       .  A
C1567      C1568   1.393       .  A
C1567      H1572   1.083       .  S
C1568      C1569   1.400       .  A
C1568      H1573   1.083       .  S
C1569      C1570   1.408       .  A
C1570      H1574   1.083       .  S
C1575      C1576   1.407       .  A
C1575      C1580   1.404       .  A
C1575      H1581   1.083       .  S
C1576      C1577   1.408       .  A
C1577      C1578   1.403       .  A
C1577      H1582   1.083       .  S
C1578      C1579   1.407       .  A
C1578      H1583   1.083       .  S
C1579      C1580   1.408       .  A
C1580      H1584   1.083       .  S
C1585      C1586   1.408       .  A
C1585      C1590   1.397       .  A
C1585      H1591   1.083       .  S
C1586      C1587   1.401       .  A
C1587      C1588   1.400       .  A
C1587      H1592   1.083       .  S
C1588      C1589   1.411       .  A
C1588      H1593   1.083       .  S
C1589      C1590   1.402       .  A
C1590      H1594   1.083       .  S
C1595      C1596   1.411       .  A
C1595      C1600   1.400       .  A
C1595      H1601   1.083       .  S
C1596      C1597   1.402       .  A
C1597      C1598   1.398       .  A
C1597      H1602   1.083       .  S
C1598      C1599   1.409       .  A
C1598      H1603   1.083       .  S
C1599      C1600   1.401       .  A
C1600      H1604   1.083       .  S
C1605      C1606   1.411       .  A
C1605      C1610   1.402   1_565  A
C1605      H1611   1.083       .  S
C1606      C1607   1.402       .  A
C1607      C1608   1.401   1_565  A
C1607      H1612   1.083       .  S
C1608      C1609   1.411       .  A
C1608      H1613   1.083       .  S
C1609      C1610   1.402       .  A
C1610      H1614   1.083       .  S
C1615      C1616   1.411       .  A
C1615      C1620   1.400       .  A
C1615      H1621   1.083       .  S
C1616      C1617   1.401       .  A
C1617      C1618   1.397       .  A
C1617      H1622   1.083       .  S
C1618      C1619   1.409       .  A
C1618      H1623   1.083       .  S
C1619      C1620   1.402       .  A
C1620      H1624   1.083       .  S
C1625      C1626   1.411       .  A
C1625      C1630   1.401       .  A
C1625      H1631   1.083       .  S
C1626      C1627   1.401       .  A
C1627      C1628   1.397       .  A
C1627      H1632   1.083       .  S
C1628      C1629   1.409       .  A
C1628      H1633   1.083       .  S
C1629      C1630   1.401       .  A
C1630      H1634   1.083       .  S
C1635      C1636   1.405       .  A
C1635      C1640   1.396       .  A
C1635      H1641   1.083       .  S
C1636      C1637   1.407       .  A
C1637      C1638   1.403       .  A
C1637      H1642   1.083       .  S
C1638      C1639   1.407       .  A
C1638      H1643   1.083       .  S
C1639      C1640   1.405       .  A
C1640      H1644   1.083       .  S
C1645      C1646   1.400       .  A
C1645      C1650   1.392       .  A
C1645      H1651   1.083       .  S
C1646      C1647   1.407       .  A
C1647      C1648   1.392       .  A
C1647      H1652   1.084       .  S
C1648      C1649   1.400       .  A
C1648      H1653   1.083       .  S
C1649      C1650   1.407       .  A
C1650      H1654   1.083       .  S
C1655      C1656   1.408       .  A
C1655      C1660   1.403       .  A
C1655      H1661   1.083       .  S
C1656      C1657   1.407       .  A
C1657      C1658   1.404       .  A
C1657      H1662   1.083       .  S
C1658      C1659   1.408       .  A
C1658      H1663   1.083       .  S
C1659      C1660   1.406       .  A
C1660      H1664   1.083       .  S
