geometry optimzed in LAMMPS
_audit_creation_date              2020-12-01 
_audit_creation_method            'lammps2cif' 
_symmetry_space_group_name_H-M    'P1' 
_symmetry_Int_Tables_number       1 
_symmetry_cell_setting            triclinic 
loop_ 
_symmetry_equiv_pos_as_xyz 
  x,y,z 
_cell_length_a                    69.91454861 
_cell_length_b                    27.862942425298165 
_cell_length_c                    33.30497801906268 
_cell_angle_alpha                 89.87684076776709 
_cell_angle_beta                  90.0388057435226 
_cell_angle_gamma                 90.10968433744262 
loop_ 
_atom_site_label 
_atom_site_type_symbol 
_atom_site_fract_x 
_atom_site_fract_y 
_atom_site_fract_z 
_atom_site_charge 
Fe1        Fe  0.80275379  0.76433264  0.72742540     1.65800
Fe2        Fe  0.79639980  0.87909665  0.70618267     1.73200
Fe3        Fe  0.76001213  0.80208868  0.69442559     1.54400
O4          O  0.76703456  0.73482234  0.67032640    -0.82600
O5          O  0.77600184  0.89941679  0.74498692    -0.80900
O6          O  0.79890975  0.72786140  0.67460918    -0.85100
O7          O  0.78013039  0.72515355  0.75334927    -0.80000
O8          O  0.76353152  0.83221734  0.63867573    -0.81800
O9          O  0.81381295  0.87029565  0.75687524    -0.84500
C10         C  0.76318736  0.73571334  0.76440820     0.96300
C11         C  0.78274859  0.71411507  0.66111322     1.03700
O12         O  0.78642502  0.81483273  0.70823088    -1.13500
O13         O  0.81780268  0.85939887  0.66840589    -0.75900
O14         O  0.82794802  0.79803995  0.70499580    -0.79400
O15         O  0.75457425  0.77178015  0.74973125    -0.80100
C16         C  0.83127020  0.83324818  0.68111899     0.95200
O17         O  0.80579644  0.79919392  0.78123309    -0.78000
O18         O  0.77956072  0.89771924  0.65610854    -0.83200
C19         C  0.75857817  0.90159881  0.73588796     0.97800
C20         C  0.76850831  0.87527173  0.63194505     1.03700
O21         O  0.75040003  0.86875185  0.71555795    -0.78900
C22         C  0.81163319  0.84186686  0.78649673     1.02000
Fe23       Fe  0.93764651  0.97638407  0.72189849     1.65800
Fe24       Fe  0.94469838  0.86116662  0.70202415     1.73200
Fe25       Fe  0.97989384  0.93940348  0.68473036     1.54400
O26         O  0.97216081  0.00641759  0.66156622    -0.82600
O27         O  0.96605495  0.84375380  0.73982774    -0.80900
O28         O  0.94043779  0.01304719  0.66879374    -0.85100
O29         O  0.96076456  0.01596048  0.74681003    -0.80000
O30         O  0.97507806  0.90834588  0.62945709    -0.81800
O31         O  0.92784682  0.87016017  0.75328952    -0.84500
C32         C  0.97827341  0.00634238  0.75475049     0.96300
C33         C  0.95629275  0.02735979  0.65433139     1.03700
O34         O  0.95394396  0.92612487  0.70183643    -1.13500
O35         O  0.92242977  0.87847156  0.66557351    -0.75900
O36         O  0.91234279  0.94142625  0.70059257    -0.79400
O37         O  0.98648403  0.97032788  0.73906404    -0.80100
C38         C  0.90900029  0.90481913  0.67820790     0.95200
O39         O  0.93508710  0.94228092  0.77624091    -0.78000
O40         O  0.96109838  0.84172431  0.65133763    -0.83200
C41         C  0.98305216  0.84130255  0.72781474     0.97800
C42         C  0.97107521  0.86408941  0.62512194     1.03700
O43         O  0.99038754  0.87320729  0.70508078    -0.78900
C44         C  0.92939749  0.89963639  0.78220197     1.02000
Fe45       Fe  0.80534850  0.97719374  0.01309451     1.65800
Fe46       Fe  0.79789823  0.86232981  0.03331714     1.73200
Fe47       Fe  0.76303260  0.94070935  0.05047750     1.54400
O48         O  0.77081396  0.00823057  0.07324315    -0.82600
O49         O  0.77661546  0.84702328  0.99491704    -0.80900
O50         O  0.80245470  0.01535779  0.06547262    -0.85100
O51         O  0.78245043  0.01569051  0.98697481    -0.80000
O52         O  0.76814717  0.91068461  0.10573943    -0.81800
O53         O  0.81506597  0.87055623  0.98235873    -0.84500
C54         C  0.76492102  0.00599945  0.97923867     0.96300
C55         C  0.78664586  0.02982460  0.08003586     1.03700
O56         O  0.78896566  0.92742720  0.03359317    -1.13500
O57         O  0.82000336  0.87878693  0.07025378    -0.75900
O58         O  0.83031974  0.94211599  0.03556538    -0.79400
O59         O  0.75639940  0.97096777  0.99595373    -0.80100
C60         C  0.83349395  0.90548564  0.05817192     0.95200
O61         O  0.80789127  0.94246159  0.95922167    -0.78000
O62         O  0.78122248  0.84318029  0.08376892    -0.83200
C63         C  0.75995344  0.84176587  0.00818268     0.97800
C64         C  0.77160825  0.86625414  0.11000990     1.03700
O65         O  0.75250809  0.87356648  0.03076046    -0.78900
C66         C  0.81332963  0.89975046  0.95324035     1.02000
Fe67       Fe  0.93852357  0.76355306  0.00643829     1.65800
Fe68       Fe  0.94602446  0.87788676  0.02921944     1.73200
Fe69       Fe  0.98123506  0.79890592  0.04231581     1.54400
O70         O  0.97377758  0.73025124  0.06336647    -0.82600
O71         O  0.96692938  0.89728553  0.99121404    -0.80900
O72         O  0.94209455  0.72397293  0.05789790    -0.85100
O73         O  0.96123840  0.72628127  0.97801516    -0.80000
O74         O  0.97683523  0.82657898  0.09864483    -0.81800
O75         O  0.92868125  0.87203339  0.97811459    -0.84500
C76         C  0.97844095  0.73795985  0.96878650     0.96300
C77         C  0.95807000  0.70843396  0.07077189     1.03700
O78         O  0.95514053  0.81295495  0.02686114    -1.13500
O79         O  0.92431014  0.85896324  0.06631855    -0.75900
O80         O  0.91361348  0.79710141  0.03070246    -0.79400
O81         O  0.98720862  0.77155111  0.98668065    -0.80100
C82         C  0.91068723  0.83285500  0.05422036     0.95200
O83         O  0.93510775  0.80014496  0.95381026    -0.78000
O84         O  0.96292003  0.89425851  0.07970687    -0.83200
C85         C  0.98419783  0.89890597  0.00163051     0.97800
C86         C  0.97319787  0.87056246  0.10454410     1.03700
O87         O  0.99166743  0.86627412  0.02343412    -0.78900
C88         C  0.92960743  0.84300898  0.94874735     1.02000
Fe89       Fe  0.05158009  0.51190844  0.75146118     1.65800
Fe90       Fe  0.04608732  0.62729308  0.77168435     1.73200
Fe91       Fe  0.00968252  0.55184474  0.78727159     1.54400
O92         O  0.00315499  0.52245688  0.73255698    -0.82600
O93         O  0.02956402  0.64772996  0.82225294    -0.80900
O94         O  0.02843813  0.47499115  0.72534955    -0.85100
O95         O  0.04804458  0.47527205  0.80412109    -0.80000
O96         O  0.00031022  0.61879619  0.76625469    -0.81800
O97         O  0.06775468  0.60750417  0.80888356    -0.84500
C98         C  0.03208224  0.46179629  0.81859983     0.96300
C99         C  0.01152063  0.48778547  0.71548502     1.03700
O100        O  0.03587775  0.56324138  0.77123002    -1.13500
O101        O  0.06327731  0.61705220  0.72076959    -0.75900
O102        O  0.05471135  0.54582051  0.69769943    -0.79400
O103        O  0.01648370  0.48414426  0.81133972    -0.80100
C104        C  0.06166575  0.58711751  0.69205081     0.95200
O105        O  0.07705454  0.54448516  0.77340032    -0.78000
O106        O  0.02537376  0.64694197  0.73294761    -0.83200
C107        C  0.01897744  0.62562680  0.84770926     0.97800
C108        C  0.00822015  0.65013138  0.74375214     1.03700
O109        O  0.01442465  0.58203142  0.84241680    -0.78900
C110        C  0.08089109  0.58018579  0.79631652     1.02000
Fe111      Fe  0.18744291  0.72364144  0.75965849     1.65800
Fe112      Fe  0.19498679  0.60773021  0.77733638     1.73200
Fe113      Fe  0.22951612  0.68589813  0.79799738     1.54400
O114        O  0.23665058  0.71619991  0.74405837    -0.82600
O115        O  0.21098666  0.58771475  0.82874406    -0.80900
O116        O  0.21079848  0.76170698  0.73396500    -0.85100
O117        O  0.19047066  0.76037796  0.81283120    -0.80000
O118        O  0.24032382  0.61961412  0.77858714    -0.81800
O119        O  0.17220001  0.62241197  0.81287262    -0.84500
C120        C  0.20634117  0.77477723  0.82708671     0.96300
C121        C  0.22818202  0.75032025  0.72613009     1.03700
O122        O  0.20369935  0.67301087  0.77933878    -1.13500
O123        O  0.17844537  0.61659540  0.72556581    -0.75900
O124        O  0.18387575  0.69086720  0.70502010    -0.79400
O125        O  0.22208564  0.75330616  0.82030200    -0.80100
C126        C  0.17813195  0.64847229  0.69821493     0.95200
O127        O  0.16230387  0.68856679  0.78124100    -0.78000
O128        O  0.21695334  0.59414362  0.74008089    -0.83200
C129        C  0.22014259  0.61027773  0.85611591     0.97800
C130        C  0.23341269  0.58880649  0.75447785     1.03700
O131        O  0.22353828  0.65496591  0.85272261    -0.78900
C132        C  0.15891509  0.65017624  0.80154454     1.02000
Fe133      Fe  0.05283306  0.72422307  0.46833407     1.65800
Fe134      Fe  0.04630422  0.60891647  0.44906612     1.73200
Fe135      Fe  0.01030323  0.68604989  0.43461366     1.54400
O136        O  0.00457097  0.71694650  0.48938465    -0.82600
O137        O  0.02947053  0.58915972  0.39917447    -0.80900
O138        O  0.03010151  0.76383770  0.49399808    -0.85100
O139        O  0.04960553  0.75938142  0.41505943    -0.80000
O140        O  0.00045163  0.61965467  0.45652549    -0.81800
O141        O  0.06786362  0.62788000  0.41130637    -0.84500
C142        C  0.03360865  0.77407469  0.40187605     0.96300
C143        C  0.01302173  0.75305783  0.50440637     1.03700
O144        O  0.03652378  0.67334266  0.44960397    -1.13500
O145        O  0.06365578  0.61885477  0.49983305    -0.75900
O146        O  0.05556251  0.69069458  0.52217814    -0.79400
O147        O  0.01772796  0.75341917  0.41030052    -0.80100
C148        C  0.06203854  0.64906223  0.52835196     0.95200
O149        O  0.07804519  0.69001271  0.44695186    -0.78000
O150        O  0.02568305  0.58933986  0.48790259    -0.83200
C151        C  0.01866352  0.61105028  0.37412971     0.97800
C152        C  0.00830879  0.58753509  0.47835983     1.03700
O153        O  0.01407520  0.65469486  0.37929849    -0.78900
C154        C  0.08134818  0.65405006  0.42403829     1.02000
Fe155      Fe  0.18626898  0.51347952  0.47676394     1.65800
Fe156      Fe  0.19362302  0.62802506  0.45418233     1.73200
Fe157      Fe  0.22944442  0.54984454  0.44422640     1.54400
O158        O  0.23435806  0.52175609  0.50046406    -0.82600
O159        O  0.21145077  0.64539320  0.40532436    -0.80900
O160        O  0.20856483  0.47570839  0.50560357    -0.85100
O161        O  0.19080899  0.47455762  0.42526128    -0.80000
O162        O  0.23918122  0.61741912  0.46377215    -0.81800
O163        O  0.17248530  0.60830162  0.41558499    -0.84500
C164        C  0.20706802  0.45862590  0.41451646     0.96300
C165        C  0.22561564  0.48642748  0.51621593     1.03700
O166        O  0.20302797  0.56333838  0.45743012    -1.13500
O167        O  0.17534076  0.62102282  0.50346671    -0.75900
O168        O  0.18191155  0.54986097  0.52957015    -0.79400
O169        O  0.22259325  0.48117583  0.42230518    -0.80100
C170        C  0.17604101  0.59268443  0.53339156     0.95200
O171        O  0.16167225  0.54676245  0.45154709    -0.78000
O172        O  0.21378724  0.64830196  0.49389133    -0.83200
C173        C  0.22229898  0.62216411  0.38145359     0.97800
C174        C  0.23117514  0.65018019  0.48448516     1.03700
O175        O  0.22621434  0.57820651  0.38755588    -0.78900
C176        C  0.15879135  0.58226035  0.42771609     1.02000
Fe177      Fe  0.68942883  0.22895146  0.76280375     1.65800
Fe178      Fe  0.69693438  0.11391903  0.78129409     1.73200
Fe179      Fe  0.73166422  0.19203875  0.80021023     1.54400
O180        O  0.73823714  0.22332163  0.74601652    -0.82600
O181        O  0.71333373  0.09379655  0.83199890    -0.80900
O182        O  0.71238423  0.26905080  0.73826115    -0.85100
O183        O  0.69216073  0.26481977  0.81639088    -0.80000
O184        O  0.74242042  0.12582354  0.78013315    -0.81800
O185        O  0.67459665  0.12910346  0.81786008    -0.84500
C186        C  0.70797287  0.27930213  0.83113723     0.96300
C187        C  0.72977303  0.25882219  0.72992721     1.03700
O188        O  0.70578495  0.17891016  0.78273674    -1.13500
O189        O  0.67994000  0.12327280  0.73021799    -0.75900
O190        O  0.68700732  0.19569978  0.70785714    -0.79400
O191        O  0.72377422  0.25854967  0.82337247    -0.80100
C192        C  0.68142244  0.15305523  0.70144104     0.95200
O193        O  0.66436672  0.19287296  0.78375921    -0.78000
O194        O  0.71846980  0.10037606  0.74312638    -0.83200
C195        C  0.72274242  0.11637351  0.85895870     0.97800
C196        C  0.73506130  0.09483717  0.75671343     1.03700
O197        O  0.72642103  0.16083804  0.85513966    -0.78900
C198        C  0.66112065  0.15570849  0.80568696     1.02000
Fe199      Fe  0.55606947  0.00907561  0.75793143     1.65800
Fe200      Fe  0.54853312  0.12384294  0.77808292     1.73200
Fe201      Fe  0.51351412  0.04492015  0.79396359     1.54400
O202        O  0.50748373  0.01411877  0.73960825    -0.82600
O203        O  0.53169760  0.14260990  0.82804399    -0.80900
O204        O  0.53346713  0.96943340  0.73240652    -0.85100
O205        O  0.55317561  0.97130847  0.81047414    -0.80000
O206        O  0.50294571  0.11096607  0.77267221    -0.81800
O207        O  0.57035946  0.10642261  0.81544086    -0.84500
C208        C  0.53722930  0.95595632  0.82382381     0.96300
C209        C  0.51606267  0.97881513  0.72381023     1.03700
O210        O  0.53949114  0.05874578  0.77784320    -1.13500
O211        O  0.56590349  0.11544289  0.72750965    -0.75900
O212        O  0.55839993  0.04368372  0.70397655    -0.79400
O213        O  0.52148522  0.97800961  0.81749091    -0.80100
C214        C  0.56420410  0.08617456  0.69842148     0.95200
O215        O  0.58099776  0.04458439  0.77989388    -0.78000
O216        O  0.52748589  0.14136199  0.73947423    -0.83200
C217        C  0.52142241  0.12000252  0.85361223     0.97800
C218        C  0.51027762  0.14334176  0.75031567     1.03700
O219        O  0.51767798  0.07576998  0.84918462    -0.78900
C220        C  0.58399799  0.08070222  0.80297020     1.02000
Fe221      Fe  0.68677646  0.01314554  0.47824775     1.65800
Fe222      Fe  0.69317375  0.12739667  0.45299199     1.73200
Fe223      Fe  0.72892787  0.04967231  0.44008777     1.54400
O224        O  0.73537162  0.02180653  0.49531126    -0.82600
O225        O  0.70996578  0.14485579  0.40247031    -0.80900
O226        O  0.70969526  0.97605948  0.50520928    -0.85100
O227        O  0.68972162  0.97264132  0.42714112    -0.80000
O228        O  0.73909082  0.11714831  0.45941713    -0.81800
O229        O  0.67138980  0.10583504  0.41677479    -0.84500
C230        C  0.70563965  0.95818122  0.41313361     0.96300
C231        C  0.72693373  0.98785397  0.51341542     1.03700
O232        O  0.70289593  0.06288707  0.45611179    -1.13500
O233        O  0.67617228  0.12100334  0.50471608    -0.75900
O234        O  0.68433272  0.05089485  0.53063132    -0.79400
O235        O  0.72130364  0.98119776  0.41858717    -0.80100
C236        C  0.67861528  0.09369855  0.53499493     0.95200
O237        O  0.66153350  0.04565232  0.45538904    -0.78000
O238        O  0.71412613  0.14941002  0.48994033    -0.83200
C239        C  0.72102470  0.12217687  0.37859161     0.97800
C240        C  0.73147786  0.15076621  0.47989587     1.03700
O241        O  0.72451339  0.07800995  0.38396496    -0.78900
C242        C  0.65805686  0.07991619  0.43067911     1.02000
Fe243      Fe  0.55273089  0.22521548  0.47209810     1.65800
Fe244      Fe  0.54446797  0.11043041  0.45576290     1.73200
Fe245      Fe  0.51034183  0.18912709  0.43509628     1.54400
O246        O  0.50375776  0.21901331  0.48959761    -0.82600
O247        O  0.52850013  0.09208556  0.40449504    -0.80900
O248        O  0.52973114  0.26461613  0.49722824    -0.85100
O249        O  0.54997710  0.26058440  0.41866251    -0.80000
O250        O  0.49928238  0.12183279  0.45357560    -0.81800
O251        O  0.56713723  0.12317474  0.41965687    -0.84500
C252        C  0.53416262  0.27823380  0.40732457     0.96300
C253        C  0.51224825  0.25466297  0.50550403     1.03700
O254        O  0.53618785  0.17554581  0.45289745    -1.13500
O255        O  0.56119972  0.11890234  0.50720077    -0.75900
O256        O  0.55529791  0.19292691  0.52674085    -0.79400
O257        O  0.51824955  0.25704748  0.41388960    -0.80100
C258        C  0.56053128  0.15063429  0.53455868     0.95200
O259        O  0.57760573  0.18895603  0.45073115    -0.78000
O260        O  0.52247243  0.09939540  0.49337993    -0.83200
C261        C  0.52001028  0.11498069  0.37642454     0.97800
C262        C  0.50644825  0.09151185  0.47792703     1.03700
O263        O  0.51608852  0.15932751  0.38000077    -0.78900
C264        C  0.58062411  0.15075359  0.43008515     1.02000
Fe265      Fe  0.68734041  0.72381190  0.25980910     1.65800
Fe266      Fe  0.69661109  0.60850915  0.27496204     1.73200
Fe267      Fe  0.72970351  0.68936701  0.29781186     1.54400
O268        O  0.73663620  0.72085971  0.24429253    -0.82600
O269        O  0.71275953  0.58927013  0.32633232    -0.80900
O270        O  0.71022640  0.76405018  0.23451388    -0.85100
O271        O  0.68969867  0.75936483  0.31340602    -0.80000
O272        O  0.74138549  0.62352726  0.27813383    -0.81800
O273        O  0.67357028  0.61895642  0.31062175    -0.84500
C274        C  0.70519069  0.77696872  0.32665105     0.96300
C275        C  0.72792947  0.75536442  0.22733800     1.03700
O276        O  0.70418284  0.67445674  0.27867512    -1.13500
O277        O  0.67979110  0.61706444  0.22377564    -0.75900
O278        O  0.68412845  0.69244951  0.20504528    -0.79400
O279        O  0.72126602  0.75649828  0.32045061    -0.80100
C280        C  0.67864085  0.65012188  0.19759126     0.95200
O281        O  0.66293910  0.68585887  0.28112035    -0.78000
O282        O  0.71885016  0.59985726  0.23725330    -0.83200
C283        C  0.72088841  0.61250378  0.35473569     0.97800
C284        C  0.73490541  0.59318630  0.25298417     1.03700
O285        O  0.72370095  0.65748587  0.35197043    -0.78900
C286        C  0.66002684  0.64673194  0.30075851     1.02000
Fe287      Fe  0.55341421  0.50598700  0.25539837     1.65800
Fe288      Fe  0.54806695  0.62233988  0.27202196     1.73200
Fe289      Fe  0.51161724  0.54803374  0.28973221     1.54400
O290        O  0.50460506  0.51512936  0.23627274    -0.82600
O291        O  0.53156981  0.64521723  0.32185364    -0.80900
O292        O  0.53001929  0.46793084  0.23099474    -0.85100
O293        O  0.54977609  0.47193924  0.30923640    -0.80000
O294        O  0.50241413  0.61488758  0.26759514    -0.81800
O295        O  0.56931507  0.60296365  0.31022621    -0.84500
C296        C  0.53357701  0.45883040  0.32265487     0.96300
C297        C  0.51266628  0.47787380  0.22219552     1.03700
O298        O  0.53772198  0.55843253  0.27293124    -1.13500
O299        O  0.56537709  0.60983731  0.22144886    -0.75900
O300        O  0.55684990  0.53754590  0.20074339    -0.79400
O301        O  0.51817730  0.48144969  0.31478570    -0.80100
C302        C  0.56401793  0.57836511  0.19379342     0.95200
O303        O  0.57896840  0.53903656  0.27631023    -0.78000
O304        O  0.52736920  0.64111566  0.23295234    -0.83200
C305        C  0.52144270  0.62355577  0.34825572     0.97800
C306        C  0.51042214  0.64586564  0.24482416     1.03700
O307        O  0.51713611  0.57955886  0.34419393    -0.78900
C308        C  0.58253833  0.57537789  0.29866149     1.02000
Fe309      Fe  0.68807024  0.51278980  0.98288553     1.65800
Fe310      Fe  0.69425328  0.62599390  0.95477850     1.73200
Fe311      Fe  0.73069030  0.54943610  0.94675669     1.54400
O312        O  0.73643371  0.52244905  0.00293514    -0.82600
O313        O  0.71140827  0.64304335  0.90539540    -0.80900
O314        O  0.71063315  0.47678650  0.01227343    -0.85100
O315        O  0.69200875  0.47190760  0.93308928    -0.80000
O316        O  0.74009070  0.61701972  0.96643228    -0.81800
O317        O  0.67377932  0.60136984  0.91685367    -0.84500
C318        C  0.70785198  0.45882947  0.91817422     0.96300
C319        C  0.72781917  0.48858751  0.02083250     1.03700
O320        O  0.70441509  0.56231323  0.96094200    -1.13500
O321        O  0.67599628  0.62008622  0.00413965    -0.75900
O322        O  0.68394365  0.55182850  0.03391009    -0.79400
O323        O  0.72358324  0.48101046  0.92491971    -0.80100
C324        C  0.67713429  0.59389211  0.03531183     0.95200
O325        O  0.66326892  0.54355550  0.95701275    -0.78000
O326        O  0.71431012  0.65086713  0.99298653    -0.83200
C327        C  0.72235204  0.61966493  0.88205738     0.97800
C328        C  0.73202946  0.65091862  0.98575123     1.03700
O329        O  0.72721872  0.57671636  0.88966107    -0.78900
C330        C  0.66024886  0.57605603  0.93050859     1.02000
Fe331      Fe  0.55638297  0.71845795  0.97411040     1.65800
Fe332      Fe  0.54861831  0.60459660  0.95098865     1.73200
Fe333      Fe  0.51384754  0.68417952  0.93630865     1.54400
O334        O  0.50750173  0.71324025  0.99128238    -0.82600
O335        O  0.53178358  0.58711299  0.90084474    -0.80900
O336        O  0.53374053  0.75717463  0.00108014    -0.85100
O337        O  0.55369662  0.75705983  0.92233526    -0.80000
O338        O  0.50312202  0.61742470  0.95590782    -0.81800
O339        O  0.57007622  0.62380709  0.91371313    -0.84500
C340        C  0.53808094  0.77391426  0.90917818     0.96300
C341        C  0.51620938  0.74734080  0.00870194     1.03700
O342        O  0.53966018  0.66956535  0.95310185    -1.13500
O343        O  0.56629245  0.61099271  0.00153820    -0.75900
O344        O  0.55923099  0.68209433  0.02707274    -0.79400
O345        O  0.52210801  0.75224508  0.91467900    -0.80100
C346        C  0.56563900  0.63992565  0.03105378     0.95200
O347        O  0.58114650  0.68404037  0.95087658    -0.78000
O348        O  0.52754342  0.58595527  0.98893310    -0.83200
C349        C  0.52172723  0.61028425  0.87536653     0.97800
C350        C  0.51035992  0.58434076  0.97764600     1.03700
O351        O  0.51823929  0.65458508  0.88039317    -0.78900
C352        C  0.58379917  0.64869243  0.92690346     1.02000
Fe353      Fe  0.30710955  0.75768941  0.22862578     1.65800
Fe354      Fe  0.30126135  0.87379082  0.20959747     1.73200
Fe355      Fe  0.26498706  0.79825306  0.19467068     1.54400
O356        O  0.27144195  0.73079665  0.17045438    -0.82600
O357        O  0.28077625  0.89436416  0.24838238    -0.80900
O358        O  0.30309437  0.72159822  0.17560599    -0.85100
O359        O  0.28411284  0.71999446  0.25483774    -0.80000
O360        O  0.26960251  0.82861816  0.13926917    -0.81800
O361        O  0.31875555  0.86310882  0.26022241    -0.84500
C362        C  0.26715262  0.73179896  0.26499259     0.96300
C363        C  0.28692062  0.70893102  0.16158605     1.03700
O364        O  0.29118276  0.80955351  0.21020371    -1.13500
O365        O  0.32241918  0.85401560  0.17139211    -0.75900
O366        O  0.33234465  0.79063763  0.20596248    -0.79400
O367        O  0.25898464  0.76799940  0.24943641    -0.80100
C368        C  0.33571170  0.82646036  0.18276225     0.95200
O369        O  0.31074747  0.79103249  0.28272182    -0.78000
O370        O  0.28439089  0.89449481  0.15989707    -0.83200
C371        C  0.26345846  0.89684872  0.23838543     0.97800
C372        C  0.27398508  0.87248547  0.13429619     1.03700
O373        O  0.25562088  0.86509874  0.21617995    -0.78900
C374        C  0.31730648  0.83273127  0.28880825     1.02000
Fe375      Fe  0.44054227  0.97218761  0.22228650     1.65800
Fe376      Fe  0.44917255  0.85636288  0.20903155     1.73200
Fe377      Fe  0.48305341  0.93532525  0.18585703     1.54400
O378        O  0.47482919  0.00100669  0.16046202    -0.82600
O379        O  0.47097622  0.84596866  0.24768689    -0.80900
O380        O  0.44319289  0.00686100  0.16842807    -0.85100
O381        O  0.46318786  0.01310836  0.24658356    -0.80000
O382        O  0.47787614  0.90113491  0.13231583    -0.81800
O383        O  0.43205845  0.86696534  0.25977328    -0.84500
C384        C  0.48074194  0.00398982  0.25441726     0.96300
C385        C  0.45887357  0.02176308  0.15369209     1.03700
O386        O  0.45731459  0.92189200  0.20441910    -1.13500
O387        O  0.42671403  0.86801186  0.17190709    -0.75900
O388        O  0.41596325  0.93473277  0.20107577    -0.79400
O389        O  0.48950715  0.96891230  0.23865941    -0.80100
C390        C  0.41315731  0.89600245  0.18099019     0.95200
O391        O  0.43778514  0.94167174  0.27784141    -0.78000
O392        O  0.46565903  0.83491366  0.15892057    -0.83200
C393        C  0.48740087  0.84047867  0.23336835     0.97800
C394        C  0.47478514  0.85618669  0.13075806     1.03700
O395        O  0.49429259  0.87045613  0.20826516    -0.78900
C396        C  0.43251763  0.89956073  0.28647825     1.02000
Fe397      Fe  0.30625065  0.97219844  0.51240464     1.65800
Fe398      Fe  0.29819512  0.85687780  0.53208998     1.73200
Fe399      Fe  0.26349340  0.93682009  0.54770872     1.54400
O400        O  0.27129466  0.00444408  0.57035432    -0.82600
O401        O  0.27699754  0.83997777  0.49353603    -0.80900
O402        O  0.30298951  0.00976559  0.56499354    -0.85100
O403        O  0.28368437  0.01185356  0.48521449    -0.80000
O404        O  0.26779255  0.90650700  0.60321906    -0.81800
O405        O  0.31559449  0.86458947  0.48113569    -0.84500
C406        C  0.26640419  0.00102462  0.47592025     0.96300
C407        C  0.28708552  0.02617663  0.57728366     1.03700
O408        O  0.28947707  0.92240186  0.53173614    -1.13500
O409        O  0.32037565  0.87295685  0.56917374    -0.75900
O410        O  0.33104984  0.93660143  0.53542729    -0.79400
O411        O  0.25760360  0.96667482  0.49282678    -0.80100
C412        C  0.33402610  0.89938762  0.55745845     0.95200
O413        O  0.30936432  0.93767900  0.45869534    -0.78000
O414        O  0.28121105  0.83892287  0.58258884    -0.83200
C415        C  0.25980376  0.83876617  0.50442537     0.97800
C416        C  0.27113201  0.86213847  0.60810890     1.03700
O417        O  0.25269355  0.87070242  0.52734033    -0.78900
C418        C  0.31515722  0.89532360  0.45272667     1.02000
Fe419      Fe  0.43987751  0.75883502  0.50786455     1.65800
Fe420      Fe  0.44630345  0.87347408  0.52998180     1.73200
Fe421      Fe  0.48247796  0.79663174  0.54222972     1.54400
O422        O  0.47549468  0.72884234  0.56574857    -0.82600
O423        O  0.46658729  0.89376980  0.49067661    -0.80900
O424        O  0.44378435  0.72074791  0.55986775    -0.85100
O425        O  0.46262424  0.72139969  0.48020709    -0.80000
O426        O  0.47831798  0.82535242  0.59817640    -0.81800
O427        O  0.42845869  0.86527968  0.47998260    -0.84500
C428        C  0.47987376  0.73201445  0.47084788     0.96300
C429        C  0.45986443  0.70669869  0.57336516     1.03700
O430        O  0.45617480  0.80916210  0.52760237    -1.13500
O431        O  0.42507478  0.85329216  0.56812528    -0.75900
O432        O  0.41478037  0.79186993  0.53167002    -0.79400
O433        O  0.48841543  0.76721959  0.48707980    -0.80100
C434        C  0.41155429  0.82705756  0.55559051     0.95200
O435        O  0.43640484  0.79460211  0.45479717    -0.78000
O436        O  0.46347164  0.89211824  0.57960635    -0.83200
C437        C  0.48396152  0.89646349  0.50013660     0.97800
C438        C  0.47384487  0.86878878  0.60442862     1.03700
O439        O  0.49208431  0.86402463  0.52123328    -0.78900
C440        C  0.42998253  0.83669730  0.45037426     1.02000
Fe441      Fe  0.80592968  0.26271420  0.22880447     1.65800
Fe442      Fe  0.79820550  0.37895168  0.21333720     1.73200
Fe443      Fe  0.76311752  0.30081005  0.19568135     1.54400
O444        O  0.77021337  0.23345229  0.17141543    -0.82600
O445        O  0.77706891  0.39301793  0.25278152    -0.80900
O446        O  0.80197830  0.22685697  0.17579898    -0.85100
O447        O  0.78343353  0.22351306  0.25609020    -0.80000
O448        O  0.76725249  0.33290331  0.14077764    -0.81800
O449        O  0.81570568  0.36941194  0.26391211    -0.84500
C450        C  0.76640508  0.23510221  0.26628269     0.96300
C451        C  0.78590378  0.21237234  0.16277056     1.03700
O452        O  0.78933446  0.31366103  0.21124375    -1.13500
O453        O  0.82005755  0.36451308  0.17516208    -0.75900
O454        O  0.83036601  0.29757453  0.20457640    -0.79400
O455        O  0.75763746  0.27006612  0.25030285    -0.80100
C456        C  0.83328437  0.33484882  0.18270173     0.95200
O457        O  0.80991371  0.29502393  0.28316577    -0.78000
O458        O  0.78128711  0.39918134  0.16347039    -0.83200
C459        C  0.76026144  0.39807549  0.24019610     0.97800
C460        C  0.77117441  0.37727664  0.13715379     1.03700
O461        O  0.75285742  0.36691119  0.21699643    -0.78900
C462        C  0.81505393  0.33738165  0.29123203     1.02000
Fe463      Fe  0.93815582  0.47199184  0.21751195     1.65800
Fe464      Fe  0.94542635  0.35677535  0.19809635     1.73200
Fe465      Fe  0.98062496  0.43462994  0.18269339     1.54400
O466        O  0.97347124  0.50224919  0.15939037    -0.82600
O467        O  0.96615697  0.33961028  0.23752180    -0.80900
O468        O  0.94177308  0.50915238  0.16485235    -0.85100
O469        O  0.96094878  0.51039754  0.24442895    -0.80000
O470        O  0.97565402  0.40527456  0.12747235    -0.81800
O471        O  0.92762010  0.36557338  0.24770825    -0.84500
C472        C  0.97805963  0.49861819  0.25400103     0.96300
C473        C  0.95774880  0.52340813  0.15104889     1.03700
O474        O  0.95460570  0.42168433  0.19862702    -1.13500
O475        O  0.92406335  0.37420252  0.15979777    -0.75900
O476        O  0.91344985  0.43742814  0.19390168    -0.79400
O477        O  0.98669795  0.46396620  0.23742428    -0.80100
C478        C  0.91053869  0.40087229  0.17126951     0.95200
O479        O  0.93449380  0.43750050  0.27148129    -0.78000
O480        O  0.96249924  0.33766938  0.14873817    -0.83200
C481        C  0.98318855  0.33588846  0.22590201     0.97800
C482        C  0.97233598  0.36096989  0.12290294     1.03700
O483        O  0.99073297  0.36763755  0.20324132    -0.78900
C484        C  0.92858899  0.39489685  0.27676973     1.02000
Fe485      Fe  0.80424349  0.48268025  0.50923932     1.65800
Fe486      Fe  0.80080767  0.36821797  0.53677129     1.73200
Fe487      Fe  0.76278290  0.44021845  0.54692242     1.54400
O488        O  0.76893022  0.50913928  0.56935868    -0.82600
O489        O  0.78081610  0.33892265  0.50089203    -0.80900
O490        O  0.80028227  0.52169989  0.56063826    -0.85100
O491        O  0.78068089  0.51729629  0.48278193    -0.80000
O492        O  0.76696860  0.41157341  0.60354815    -0.81800
O493        O  0.81735080  0.37646203  0.48469070    -0.84500
C494        C  0.76340831  0.50529997  0.47545646     0.96300
C495        C  0.78417432  0.53366980  0.57538683     1.03700
O496        O  0.78912605  0.43053227  0.53124446    -1.13500
O497        O  0.82157543  0.39639386  0.57289811    -0.75900
O498        O  0.83026021  0.45389745  0.53087319    -0.79400
O499        O  0.75584030  0.46880371  0.49183511    -0.80100
C500        C  0.83448473  0.42058825  0.55578379     0.95200
O501        O  0.80800981  0.44524317  0.45692572    -0.78000
O502        O  0.78474336  0.34904790  0.58735141    -0.83200
C503        C  0.76311924  0.33780303  0.50818132     0.97800
C504        C  0.77268299  0.36907727  0.61044632     1.03700
O505        O  0.75452712  0.37197155  0.52626075    -0.78900
C506        C  0.81530399  0.40370927  0.45413274     1.02000
Fe507      Fe  0.93697269  0.25876646  0.50087593     1.65800
Fe508      Fe  0.94241023  0.37391895  0.52323498     1.73200
Fe509      Fe  0.97856887  0.29824385  0.53918375     1.54400
O510        O  0.97130544  0.23049418  0.56260118    -0.82600
O511        O  0.96325203  0.39483956  0.48572811    -0.80900
O512        O  0.93982284  0.22120384  0.55346595    -0.85100
O513        O  0.96031744  0.22108294  0.47610817    -0.80000
O514        O  0.97327691  0.32834158  0.59418986    -0.81800
O515        O  0.92580827  0.36480051  0.47163555    -0.84500
C516        C  0.97774287  0.23199737  0.46884406     0.96300
C517        C  0.95561541  0.20798390  0.56893444     1.03700
O518        O  0.95261706  0.30984689  0.52190397    -1.13500
O519        O  0.92054717  0.35263120  0.55963435    -0.75900
O520        O  0.91140468  0.29130548  0.52168540    -0.79400
O521        O  0.98569615  0.26804790  0.48506399    -0.80100
C522        C  0.90748715  0.32655299  0.54489546     0.95200
O523        O  0.93440413  0.29433182  0.44723754    -0.78000
O524        O  0.95879438  0.39436843  0.57357489    -0.83200
C525        C  0.98042755  0.39762006  0.49653677     0.97800
C526        C  0.96959347  0.37251117  0.59856163     1.03700
O527        O  0.98827507  0.36554095  0.51847860    -0.78900
C528        C  0.92797255  0.33644982  0.44211700     1.02000
Fe529      Fe  0.05578891  0.01054747  0.25571283     1.65800
Fe530      Fe  0.04818352  0.12515626  0.27602002     1.73200
Fe531      Fe  0.01349582  0.04669010  0.29425912     1.54400
O532        O  0.00689127  0.01686022  0.23990724    -0.82600
O533        O  0.03172758  0.14383679  0.32654618    -0.80900
O534        O  0.03283072  0.97191128  0.23015347    -0.85100
O535        O  0.05307699  0.97201642  0.30808930    -0.80000
O536        O  0.00268514  0.11301413  0.27413190    -0.81800
O537        O  0.07042588  0.10841854  0.31248602    -0.84500
C538        C  0.03726314  0.95775510  0.32293399     0.96300
C539        C  0.01550293  0.98309866  0.22202406     1.03700
O540        O  0.03934853  0.06008859  0.27657495    -1.13500
O541        O  0.06514098  0.11728951  0.22479899    -0.75900
O542        O  0.05814114  0.04535197  0.20157893    -0.79400
O543        O  0.02147942  0.97963421  0.31686857    -0.80100
C544        C  0.06355727  0.08817588  0.19568267     0.95200
O545        O  0.08094925  0.04596649  0.27738053    -0.78000
O546        O  0.02668196  0.14120306  0.23823439    -0.83200
C547        C  0.02212841  0.12151389  0.35331420     0.97800
C548        C  0.00981027  0.14469551  0.25087519     1.03700
O549        O  0.01850517  0.07704087  0.34958882    -0.78900
C550        C  0.08404310  0.08280881  0.29969592     1.02000
Fe551      Fe  0.19124683  0.22851667  0.26149342     1.65800
Fe552      Fe  0.19546377  0.11330990  0.28510399     1.73200
Fe553      Fe  0.23287073  0.18703236  0.29682895     1.54400
O554        O  0.23902661  0.21480410  0.24090603    -0.82600
O555        O  0.21156655  0.09443210  0.33663401    -0.80900
O556        O  0.21482101  0.26599428  0.23650547    -0.85100
O557        O  0.19458186  0.26467851  0.31431750    -0.80000
O558        O  0.24162907  0.11859419  0.27712714    -0.81800
O559        O  0.17412999  0.13777280  0.32091942    -0.84500
C560        C  0.21076883  0.27840756  0.32759621     0.96300
C561        C  0.23137092  0.25171656  0.22550266     1.03700
O562        O  0.20655051  0.17640215  0.28203790    -1.13500
O563        O  0.17928024  0.12313798  0.23215850    -0.75900
O564        O  0.18890880  0.19350013  0.20846153    -0.79400
O565        O  0.22633645  0.25601028  0.31960877    -0.80100
C566        C  0.18210504  0.15204486  0.20281917     0.95200
O567        O  0.16499400  0.19690033  0.28113811    -0.78000
O568        O  0.21575149  0.08711438  0.24879355    -0.83200
C569        C  0.22336798  0.11584876  0.36004351     0.97800
C570        C  0.23321458  0.08526411  0.25752355     1.03700
O571        O  0.22875166  0.15856702  0.35304764    -0.78900
C572        C  0.16096101  0.16213580  0.30494983     1.02000
Fe573      Fe  0.05486358  0.22728518  0.97224347     1.65800
Fe574      Fe  0.05030108  0.11352496  0.94453910     1.73200
Fe575      Fe  0.01355556  0.18884864  0.93206912     1.54400
O576        O  0.00659443  0.21387989  0.98803816    -0.82600
O577        O  0.03478711  0.09766299  0.89167869    -0.80900
O578        O  0.03128221  0.26299717  0.99693620    -0.85100
O579        O  0.05213961  0.26706157  0.92063569    -0.80000
O580        O  0.00383931  0.12026182  0.94913774    -0.81800
O581        O  0.07275953  0.13868496  0.91121923    -0.84500
C582        C  0.03612546  0.28246123  0.90780781     0.96300
C583        C  0.01434117  0.24931520  0.00543698     1.03700
O584        O  0.03959921  0.17676549  0.94880736    -1.13500
O585        O  0.06557295  0.11932434  0.99894643    -0.75900
O586        O  0.05691263  0.18938440  0.02455180    -0.79400
O587        O  0.02061198  0.25870501  0.91303908    -0.80100
C588        C  0.06320704  0.14703653  0.02903075     0.95200
O589        O  0.08099053  0.19658144  0.95327953    -0.78000
O590        O  0.02910188  0.08719614  0.97850659    -0.83200
C591        C  0.02361143  0.12032587  0.86785413     0.97800
C592        C  0.01167659  0.08652095  0.96913265     1.03700
O593        O  0.01861985  0.16328400  0.87510618    -0.78900
C594        C  0.08546335  0.16276255  0.92920151     1.02000
Fe595      Fe  0.18998441  0.00525767  0.98172002     1.65800
Fe596      Fe  0.19499857  0.11977477  0.95832330     1.73200
Fe597      Fe  0.23132271  0.04463547  0.94204880     1.54400
O598        O  0.23871234  0.01554997  0.99673322    -0.82600
O599        O  0.21080347  0.13949949  0.90667334    -0.80900
O600        O  0.21356483  0.96793282  0.00583327    -0.85100
O601        O  0.19229299  0.96789208  0.92928756    -0.80000
O602        O  0.24102996  0.11325844  0.96093721    -0.81800
O603        O  0.17271913  0.09898455  0.92297794    -0.84500
C604        C  0.20795902  0.95429853  0.91361116     0.96300
C605        C  0.23090227  0.97944467  0.01334379     1.03700
O606        O  0.20532476  0.05600370  0.95939560    -1.13500
O607        O  0.17882081  0.11048969  0.01056903    -0.75900
O608        O  0.18831267  0.04066117  0.03523064    -0.79400
O609        O  0.22384019  0.97624674  0.91969888    -0.80100
C610        C  0.18163780  0.08235377  0.04019722     0.95200
O611        O  0.16410344  0.03789647  0.96185701    -0.78000
O612        O  0.21623127  0.13950197  0.99542492    -0.83200
C613        C  0.22134648  0.11716070  0.88157656     0.97800
C614        C  0.23275375  0.14555298  0.98187024     1.03700
O615        O  0.22577300  0.07343321  0.88663892    -0.78900
C616        C  0.15982925  0.07306592  0.93860615     1.02000
Fe617      Fe  0.30342637  0.26096391  0.72843334     1.65800
Fe618      Fe  0.29625375  0.37521446  0.70617753     1.73200
Fe619      Fe  0.26064682  0.29674121  0.69329261     1.54400
O620        O  0.26825355  0.22912053  0.67019577    -0.82600
O621        O  0.27567844  0.39358383  0.74547476    -0.80900
O622        O  0.30002091  0.22265679  0.67644445    -0.85100
O623        O  0.28088921  0.22185428  0.75504626    -0.80000
O624        O  0.26430062  0.32697726  0.63732344    -0.81800
O625        O  0.31423155  0.36712686  0.75586427    -0.84500
C626        C  0.26369755  0.23196958  0.76478300     0.96300
C627        C  0.28403361  0.20737695  0.66328879     1.03700
O628        O  0.28686034  0.31043830  0.70805099    -1.13500
O629        O  0.31768695  0.35657164  0.66817176    -0.75900
O630        O  0.32822863  0.29549924  0.70499355    -0.79400
O631        O  0.25498726  0.26694700  0.74860811    -0.80100
C632        C  0.33128352  0.33074828  0.68091586     0.95200
O633        O  0.30648629  0.29680386  0.78197876    -0.78000
O634        O  0.27895835  0.39386321  0.65679541    -0.83200
C635        C  0.25837399  0.39598992  0.73533552     0.97800
C636        C  0.26839604  0.37101361  0.63202705     1.03700
O637        O  0.25056975  0.36338783  0.71402888    -0.78900
C638        C  0.31244351  0.33951924  0.78605137     1.02000
Fe639      Fe  0.43753138  0.47210749  0.72514796     1.65800
Fe640      Fe  0.44434976  0.35730394  0.70341739     1.73200
Fe641      Fe  0.47966150  0.43499640  0.68755372     1.54400
O642        O  0.47249537  0.50421742  0.66764214    -0.82600
O643        O  0.46583201  0.33888380  0.74038135    -0.80900
O644        O  0.44086701  0.51048067  0.67306388    -0.85100
O645        O  0.46085946  0.50901761  0.75174789    -0.80000
O646        O  0.47421524  0.40779131  0.63130462    -0.81800
O647        O  0.42778774  0.36422120  0.75546314    -0.84500
C648        C  0.47804957  0.49676348  0.76036676     0.96300
C649        C  0.45688408  0.52687649  0.66135909     1.03700
O650        O  0.45365671  0.42197411  0.70446872    -1.13500
O651        O  0.42209613  0.37583831  0.66760705    -0.75900
O652        O  0.41216264  0.43892904  0.70263242    -0.79400
O653        O  0.48631597  0.46193803  0.74307362    -0.80100
C654        C  0.40877072  0.40254460  0.68007749     0.95200
O655        O  0.43419876  0.43684004  0.77852967    -0.78000
O656        O  0.46043716  0.34022220  0.65179228    -0.83200
C657        C  0.48250124  0.33429272  0.72696626     0.97800
C658        C  0.47009268  0.36382212  0.62579573     1.03700
O659        O  0.48995942  0.36673341  0.70488339    -0.78900
C660        C  0.42843884  0.39422920  0.78418976     1.02000
Fe661      Fe  0.30502429  0.47852145  0.00841353     1.65800
Fe662      Fe  0.30168013  0.36364166  0.03248788     1.73200
Fe663      Fe  0.26381214  0.43521578  0.04540651     1.54400
O664        O  0.26981781  0.50507931  0.06737733    -0.82600
O665        O  0.28152627  0.33917069  0.99502113    -0.80900
O666        O  0.30132495  0.51552085  0.06051634    -0.85100
O667        O  0.28123478  0.51325225  0.98261552    -0.80000
O668        O  0.26875857  0.40702953  0.10170450    -0.81800
O669        O  0.31819848  0.37347193  0.98033909    -0.84500
C670        C  0.26410154  0.50068543  0.97431326     0.96300
C671        C  0.28523511  0.52874694  0.07434523     1.03700
O672        O  0.29016165  0.42613660  0.02960290    -1.13500
O673        O  0.32272057  0.38873967  0.06896369    -0.75900
O674        O  0.33102742  0.44920035  0.02962122    -0.79400
O675        O  0.25669494  0.46341276  0.98998882    -0.80100
C676        C  0.33549205  0.41452240  0.05299615     0.95200
O677        O  0.30837396  0.44291890  0.95559721    -0.78000
O678        O  0.28564889  0.34324338  0.08362609    -0.83200
C679        C  0.26474766  0.33287770  0.00706842     0.97800
C680        C  0.27424767  0.36420354  0.10795326     1.03700
O681        O  0.25570623  0.36538450  0.02640969    -0.78900
C682        C  0.31547000  0.40153007  0.95060635     1.02000
Fe683      Fe  0.43736945  0.25425189  0.00480156     1.65800
Fe684      Fe  0.44243992  0.36827620  0.03191377     1.73200
Fe685      Fe  0.47951536  0.29369153  0.04042149     1.54400
O686        O  0.47291659  0.22468798  0.06165259    -0.82600
O687        O  0.46261606  0.39615366  0.99579387    -0.80900
O688        O  0.44109463  0.21581803  0.05666963    -0.85100
O689        O  0.46043949  0.21746937  0.97832389    -0.80000
O690        O  0.47580703  0.32045947  0.09767429    -0.81800
O691        O  0.42598198  0.36142102  0.97958107    -0.84500
C692        C  0.47719663  0.23104952  0.96817864     0.96300
C693        C  0.45736081  0.20241288  0.06965191     1.03700
O694        O  0.45320727  0.30529256  0.02615579    -1.13500
O695        O  0.42145413  0.34153033  0.06818012    -0.75900
O696        O  0.41172142  0.28522727  0.02623072    -0.79400
O697        O  0.48518867  0.26721972  0.98406319    -0.80100
C698        C  0.40814820  0.31832623  0.05158458     0.95200
O699        O  0.43411569  0.29169910  0.95239910    -0.78000
O700        O  0.45869509  0.38517015  0.08297981    -0.83200
C701        C  0.48028368  0.39635816  0.00313865     0.97800
C702        C  0.47016875  0.36264752  0.10604022     1.03700
O703        O  0.48854998  0.36183058  0.02134078    -0.78900
C704        C  0.42780887  0.33422616  0.94908141     1.02000
C705        C  0.35550664  0.39699251  0.05548323    -0.07100
C706        C  0.36119448  0.37002318  0.08939350    -0.18200
C707        C  0.37787450  0.34184432  0.08897343     0.10100
C708        C  0.38882644  0.33916831  0.05354900    -0.07000
C709        C  0.38310509  0.36571261  0.01990568    -0.18200
C710        C  0.36719164  0.39564587  0.02080531     0.10200
S711        S  0.38393230  0.30851362  0.13364190    -0.33200
S712        S  0.36239363  0.42922214  0.97562111    -0.33200
H713        H  0.36157568  0.47344582  0.99587325     0.28200
H714        H  0.39488844  0.27312461  0.11436387     0.28200
H715        H  0.35224871  0.36965893  0.11595124     0.18800
H716        H  0.39148850  0.36453430  0.99270920     0.18800
C717        C  0.42332592  0.37942168  0.82598672    -0.07100
C718        C  0.42499492  0.41392933  0.85667267    -0.18200
C719        C  0.42451644  0.40119364  0.89728109     0.10100
C720        C  0.42301933  0.35221141  0.90820661    -0.07000
C721        C  0.41946045  0.31838238  0.87781029    -0.18200
C722        C  0.41911600  0.33142978  0.83719939     0.10200
S723        S  0.42748283  0.44907405  0.93302709    -0.33200
S724        S  0.41379488  0.28447199  0.80177848    -0.33200
H725        H  0.40074958  0.31265915  0.77981587     0.28200
H726        H  0.41071140  0.43702517  0.95416420     0.28200
H727        H  0.42747237  0.45128295  0.84917618     0.18800
H728        H  0.41744154  0.28093811  0.88563958     0.18800
C729        C  0.31704912  0.35750589  0.82696206    -0.07100
C730        C  0.32189367  0.32428188  0.85716284    -0.31000
C731        C  0.32360602  0.33805091  0.89748720     0.10100
C732        C  0.31963593  0.38608821  0.90857904    -0.07000
C733        C  0.31656547  0.41992878  0.87780590    -0.18200
C734        C  0.31505043  0.40646605  0.83748164     0.10200
S735        S  0.33041446  0.29217976  0.93287697    -0.33200
S736        S  0.30888360  0.45217568  0.80096087    -0.33200
H737        H  0.30621632  0.49049325  0.82778193     0.28200
H738        H  0.34410470  0.32134142  0.95206055     0.28200
H739        H  0.32405011  0.28691373  0.84941135     0.18800
H740        H  0.31424398  0.45714980  0.88554949     0.18800
C741        C  0.35116772  0.34716535  0.67231509    -0.07100
C742        C  0.35448007  0.39702379  0.66831414    -0.18200
C743        C  0.37303427  0.41642696  0.66828724     0.10100
C744        C  0.38887061  0.38563410  0.67261975    -0.07000
C745        C  0.38558129  0.33564550  0.67391014    -0.18200
C746        C  0.36709181  0.31622374  0.67351184     0.10200
S747        S  0.37550117  0.48051355  0.66286931    -0.33200
S748        S  0.36486872  0.25177180  0.67501413    -0.33200
H749        H  0.34822901  0.25006335  0.65125068     0.28200
H750        H  0.39316506  0.47878652  0.64271518     0.28200
H751        H  0.34248954  0.42156118  0.66694538     0.18800
H752        H  0.39754438  0.31120399  0.67683709     0.18800
C753        C  0.25669235  0.28479155  0.00106696    -0.07100
C754        C  0.23753121  0.28031375  0.99045972    -0.18200
C755        C  0.22954226  0.23519207  0.98340070     0.10100
C756        C  0.24107385  0.19343400  0.98745521    -0.07000
C757        C  0.26026408  0.19784788  0.99806088    -0.18200
C758        C  0.26820486  0.24302530  0.00557468     0.10200
S759        S  0.20481811  0.23220265  0.96722126    -0.33200
S760        S  0.29270598  0.24613501  0.02321935    -0.33200
H761        H  0.29626915  0.19649066  0.02448223     0.28200
H762        H  0.20049397  0.28120323  0.97149776     0.28200
H763        H  0.22897471  0.31239141  0.98687337     0.18800
H764        H  0.26881256  0.16573891  0.00155540     0.18800
C765        C  0.23098035  0.14404898  0.84863327    -0.07100
C766        C  0.25059616  0.13559764  0.84284209    -0.18200
C767        C  0.26170557  0.16409639  0.81713035     0.10100
C768        C  0.25303058  0.20152627  0.79465710    -0.07000
C769        C  0.23319220  0.20919647  0.79995573    -0.18200
C770        C  0.22219496  0.18119133  0.82651362     0.10200
S771        S  0.28700107  0.15189436  0.81664234    -0.33200
S772        S  0.19696185  0.19377165  0.82994949    -0.33200
H773        H  0.19138021  0.14623246  0.83822115     0.28200
H774        H  0.29207053  0.19986246  0.82467662     0.28200
H775        H  0.25767117  0.10799071  0.86035410     0.18800
H776        H  0.22601228  0.23709637  0.78303043     0.18800
C777        C  0.13971246  0.08993643  0.93459204    -0.07100
C778        C  0.13354462  0.10998487  0.89787679    -0.18200
C779        C  0.11622929  0.13556740  0.89493991     0.10100
C780        C  0.10516829  0.14341633  0.92973733    -0.07000
C781        C  0.11147044  0.12412218  0.96632105    -0.18200
C782        C  0.12806506  0.09644050  0.96891576     0.10200
S783        S  0.10930998  0.15851849  0.84644863    -0.33200
S784        S  0.13377907  0.07215758  0.01756877    -0.33200
H785        H  0.13471138  0.02465848  0.00346993     0.28200
H786        H  0.09815380  0.19667306  0.86094413     0.28200
H787        H  0.14244726  0.10639744  0.87143552     0.18800
H788        H  0.10291795  0.12890389  0.99311090     0.18800
C789        C  0.26538551  0.33591657  0.14165166    -0.07100
C790        C  0.26401003  0.28565513  0.13761607    -0.18200
C791        C  0.25274729  0.25768494  0.16369762     0.10100
C792        C  0.24248846  0.27981681  0.19524765    -0.07000
C793        C  0.24406593  0.32972907  0.19981466    -0.18200
C794        C  0.25568969  0.35759552  0.17436492     0.10200
S795        S  0.25109676  0.19425860  0.15338807    -0.33200
S796        S  0.25814064  0.42017336  0.18676201    -0.33200
H797        H  0.27746741  0.42318808  0.17520484     0.28200
H798        H  0.23179474  0.18962563  0.16473833     0.28200
H799        H  0.27098730  0.26800374  0.11266060     0.18800
H800        H  0.23664270  0.34709337  0.22431078     0.18800
C801        C  0.17799153  0.09986634  0.08143420    -0.07100
C802        C  0.18014978  0.14912251  0.08849982    -0.18200
C803        C  0.18014557  0.16780606  0.12731148     0.10100
C804        C  0.17830490  0.13638187  0.16083328    -0.07000
C805        C  0.17496272  0.08739189  0.15352461    -0.18200
C806        C  0.17458957  0.06894884  0.11446900     0.10200
S807        S  0.18316282  0.23198525  0.13097218    -0.33200
S808        S  0.16988475  0.00562847  0.10923765    -0.33200
H809        H  0.15910969  0.01046243  0.07379293     0.28200
H810        H  0.16827221  0.23742850  0.15900305     0.28200
H811        H  0.18262240  0.17341735  0.06355652     0.18800
H812        H  0.17322392  0.06271872  0.17844521     0.18800
C813        C  0.06748894  0.10423333  0.15364472    -0.07100
C814        C  0.06848078  0.06924739  0.12321391    -0.18200
C815        C  0.06859600  0.08163661  0.08237257     0.10100
C816        C  0.06740264  0.13054281  0.07088431    -0.07000
C817        C  0.06784660  0.16548806  0.10136790    -0.18200
C818        C  0.06796164  0.15321529  0.14209247     0.10200
S819        S  0.06886042  0.03287654  0.04698913    -0.33200
S820        S  0.06709826  0.20239216  0.17711413    -0.33200
H821        H  0.08362214  0.18732246  0.19773025     0.28200
H822        H  0.08492671  0.05086009  0.02637895     0.28200
H823        H  0.06850129  0.03151425  0.13115603     0.18800
H824        H  0.06737696  0.20324098  0.09356293     0.18800
C825        C  0.10379029  0.10156070  0.30643521    -0.07100
C826        C  0.10638118  0.15186840  0.30541588    -0.18200
C827        C  0.12458969  0.17310268  0.30667689     0.10100
C828        C  0.14096563  0.14376793  0.30916860    -0.07000
C829        C  0.13833102  0.09349657  0.31150773    -0.18200
C830        C  0.12010681  0.07225315  0.31014173     0.10200
S831        S  0.12585303  0.23766300  0.30473470    -0.33200
S832        S  0.11872328  0.00775133  0.31309945    -0.33200
H833        H  0.10137942  0.00666940  0.33447205     0.28200
H834        H  0.14190998  0.24137540  0.33001919     0.28200
H835        H  0.09407219  0.17517588  0.30227993     0.18800
H836        H  0.15067470  0.07009696  0.31308348     0.18800
C837        C  0.01304265  0.14894186  0.38706334    -0.07100
C838        C  0.99881817  0.12612042  0.41038583    -0.18200
C839        C  0.98726280  0.15180921  0.43749371     0.10100
C840        C  0.98945158  0.20211682  0.44094297    -0.07000
C841        C  0.00415330  0.22454803  0.41905518    -0.18200
C842        C  0.01610775  0.19879875  0.39313634     0.10200
S843        S  0.97029682  0.11937308  0.46828371    -0.33200
S844        S  0.03504915  0.23235218  0.36934547    -0.33200
H845        H  0.04892189  0.19666503  0.37610249     0.28200
H846        H  0.97744395  0.07316064  0.46046452     0.28200
H847        H  0.99631453  0.08804956  0.40666623     0.18800
H848        H  0.00646969  0.26281539  0.42227574     0.18800
C849        C  0.85406021  0.40065164  0.55579170    -0.07100
C850        C  0.86091189  0.38574806  0.51834148    -0.18200
C851        C  0.87663952  0.35546038  0.51494083     0.10100
C852        C  0.88753412  0.34371938  0.54934973    -0.07000
C853        C  0.88103727  0.35966088  0.58706344    -0.18200
C854        C  0.86401450  0.38627689  0.59077292     0.10200
S855        S  0.88184925  0.33334123  0.46544891    -0.33200
S856        S  0.85603100  0.40158092  0.64056889    -0.33200
H857        H  0.84510654  0.44167986  0.62920605     0.28200
H858        H  0.88252769  0.28509942  0.47787253     0.28200
H859        H  0.85317917  0.39515360  0.49127706     0.18800
H860        H  0.88935095  0.35162664  0.61371077     0.18800
C861        C  0.92352058  0.37896134  0.31818037    -0.07100
C862        C  0.92216184  0.41387306  0.34850863    -0.18200
C863        C  0.92149622  0.40126089  0.38918862     0.10100
C864        C  0.92326701  0.35238135  0.40050541    -0.07000
C865        C  0.92274022  0.31744402  0.37013013    -0.18200
C866        C  0.92239098  0.32994075  0.32948474     0.10200
S867        S  0.91929497  0.44977023  0.42455542    -0.33200
S868        S  0.92153982  0.28100995  0.29422366    -0.33200
H869        H  0.90598936  0.30050737  0.27284509     0.28200
H870        H  0.90380295  0.42839987  0.44484189     0.28200
H871        H  0.92214204  0.45161941  0.34063044     0.18800
H872        H  0.92314193  0.27969855  0.37797410     0.18800
C873        C  0.00018310  0.19055246  0.24232747    -0.07100
C874        C  0.00704069  0.21697275  0.20924057    -0.18200
C875        C  0.00386478  0.26609700  0.20563096     0.10100
C876        C  0.99255097  0.28968851  0.23455793    -0.07000
C877        C  0.98553153  0.26319760  0.26748150    -0.18200
C878        C  0.98891101  0.21412096  0.27136130     0.10200
S879        S  0.01463535  0.29587656  0.16325328    -0.33200
S880        S  0.97866354  0.18447998  0.31439446    -0.33200
H881        H  0.97069145  0.14700534  0.29156136     0.28200
H882        H  0.02271839  0.33258190  0.18677672     0.28200
H883        H  0.01595937  0.19965396  0.18694018     0.18800
H884        H  0.97654429  0.28053686  0.28964280     0.18800
C885        C  0.98163631  0.33438956  0.08920336    -0.07100
C886        C  0.97897800  0.28428111  0.08727268    -0.18200
C887        C  0.98965861  0.25550389  0.06106913     0.10100
C888        C  0.00300100  0.27719343  0.03486577    -0.07000
C889        C  0.00538210  0.32712784  0.03585024    -0.18200
C890        C  0.99503089  0.35600987  0.06253970     0.10200
S891        S  0.98705705  0.19094455  0.06365323    -0.33200
S892        S  0.99951731  0.42004998  0.06145662    -0.33200
H893        H  0.01605411  0.41903696  0.03743878     0.28200
H894        H  0.97516640  0.18934163  0.09768755     0.28200
H895        H  0.96901873  0.26711635  0.10759784     0.18800
H896        H  0.01537362  0.34367285  0.01519269     0.18800
C897        C  0.82031759  0.38493631  0.41390048    -0.07100
C898        C  0.81625048  0.33665625  0.40597192    -0.18200
C899        C  0.81583887  0.31882224  0.36666629     0.10100
C900        C  0.81940396  0.35049740  0.33385392    -0.07000
C901        C  0.82546242  0.39765570  0.34244952    -0.18200
C902        C  0.82626459  0.41480994  0.38196210     0.10200
S903        S  0.80941694  0.25631888  0.36006937    -0.33200
S904        S  0.83498033  0.47502673  0.38973576    -0.33200
H905        H  0.84253867  0.46592043  0.42819269     0.28200
H906        H  0.81087175  0.24223945  0.40054416     0.28200
H907        H  0.81198994  0.31349285  0.43054308     0.18800
H908        H  0.82909857  0.42197394  0.31819821     0.18800
C909        C  0.85295386  0.34815009  0.16932750    -0.07100
C910        C  0.85665450  0.39696905  0.16047080    -0.18200
C911        C  0.87532071  0.41483389  0.15735134     0.10100
C912        C  0.89083565  0.38370592  0.16351543    -0.07000
C913        C  0.88722746  0.33420769  0.16810836    -0.18200
C914        C  0.86857255  0.31608142  0.17054269     0.10200
S915        S  0.87845857  0.47765175  0.14616875    -0.33200
S916        S  0.86583052  0.25205985  0.17602603    -0.33200
H917        H  0.84912105  0.24955197  0.15251138     0.28200
H918        H  0.89611886  0.47184587  0.12660870     0.28200
H919        H  0.84497703  0.42228529  0.15798731     0.18800
H920        H  0.89905250  0.30951483  0.17196779     0.18800
C921        C  0.46018470  0.66210053  0.59768953    -0.07100
C922        C  0.44440499  0.65206815  0.62235736    -0.18200
C923        C  0.44312810  0.60932554  0.64427026     0.10100
C924        C  0.45768104  0.57416566  0.64054172    -0.07000
C925        C  0.47374964  0.58494172  0.61678721    -0.18200
C926        C  0.47513470  0.62803596  0.59531354     0.10200
S927        S  0.42295139  0.60354553  0.67764882    -0.33200
S928        S  0.49583272  0.63558931  0.56367499    -0.33200
H929        H  0.48530930  0.65145770  0.53025504     0.28200
H930        H  0.43406594  0.58777848  0.71036339     0.28200
H931        H  0.43301457  0.67821005  0.62509030     0.18800
H932        H  0.48516085  0.55892673  0.61384234     0.18800
C933        C  0.28396033  0.16176055  0.64034773    -0.07100
C934        C  0.29942677  0.15213744  0.61484355    -0.18200
C935        C  0.30077825  0.10889669  0.59379252     0.10100
C936        C  0.28662884  0.07284212  0.59913166    -0.07000
C937        C  0.27115380  0.08248065  0.62486932    -0.18200
C938        C  0.26965934  0.12628002  0.64553356     0.10200
S939        S  0.32049618  0.10362027  0.55924360    -0.33200
S940        S  0.25017915  0.13470424  0.68053380    -0.33200
H941        H  0.24015507  0.09229148  0.67139436     0.28200
H942        H  0.30895861  0.08770802  0.52725836     0.28200
H943        H  0.31045207  0.17909434  0.61062781     0.18800
H944        H  0.26032907  0.05517205  0.62935393     0.18800
C945        C  0.25564429  0.03009250  0.44570757    -0.07100
C946        C  0.25687584  0.08034766  0.44685138    -0.18200
C947        C  0.24545764  0.10947617  0.42195038     0.10100
C948        C  0.23274604  0.08824221  0.39359456    -0.07000
C949        C  0.23137608  0.03781375  0.39317905    -0.18200
C950        C  0.24261939  0.00888115  0.41835465     0.10200
S951        S  0.24757212  0.17337277  0.42913696    -0.33200
S952        S  0.24038796  0.94481997  0.41230270    -0.33200
H953        H  0.25994993  0.93531449  0.41827104     0.28200
H954        H  0.22776887  0.18172141  0.42619754     0.28200
H955        H  0.26634839  0.09722670  0.46842691     0.18800
H956        H  0.22210635  0.02027883  0.37161243     0.18800
C957        C  0.35384667  0.88163405  0.56507656    -0.07100
C958        C  0.35706548  0.83167180  0.56275419    -0.18200
C959        C  0.37557709  0.81218300  0.56276265     0.10100
C960        C  0.39158430  0.84303979  0.56444335    -0.07000
C961        C  0.38829749  0.89271276  0.56966883    -0.18200
C962        C  0.36976297  0.91209626  0.57028081     0.10200
S963        S  0.37775535  0.74780104  0.56039788    -0.33200
S964        S  0.36738618  0.97584364  0.57774789    -0.33200
H965        H  0.34976342  0.97297618  0.59800858     0.28200
H966        H  0.39432385  0.74562878  0.58436336     0.28200
H967        H  0.34504068  0.80741489  0.55935057     0.18800
H968        H  0.40030179  0.91725001  0.57168662     0.18800
C969        C  0.45839767  0.15764103  0.09284102    -0.07100
C970        C  0.46976478  0.12024727  0.07786229    -0.18200
C971        C  0.46990445  0.07494550  0.09636807     0.10100
C972        C  0.45862596  0.06726107  0.13090602    -0.07000
C973        C  0.44733050  0.10491189  0.14583322    -0.18200
C974        C  0.44715415  0.14993005  0.12733642     0.10200
S975        S  0.48343609  0.02657094  0.07420501    -0.33200
S976        S  0.43261750  0.19623614  0.14963787    -0.33200
H977        H  0.44411353  0.23512045  0.13750909     0.28200
H978        H  0.49042610  0.05250038  0.04100036     0.28200
H979        H  0.47804428  0.12623494  0.05082458     0.18800
H980        H  0.43889165  0.09956562  0.17277452     0.18800
C981        C  0.42556360  0.85413916  0.40934611    -0.07100
C982        C  0.42859612  0.90290108  0.40090718    -0.18200
C983        C  0.42951485  0.92000008  0.36131597     0.10100
C984        C  0.42765851  0.88708263  0.32891676    -0.07000
C985        C  0.42268308  0.83923325  0.33775442    -0.18200
C986        C  0.42135315  0.82268970  0.37730149     0.10200
S987        S  0.43400578  0.98344360  0.35382765    -0.33200
S988        S  0.41447137  0.76086411  0.38462573    -0.33200
H989        H  0.40471570  0.76917905  0.42090182     0.28200
H990        H  0.43213407  0.99787382  0.39408743     0.28200
H991        H  0.43153740  0.92727706  0.42541084     0.18800
H992        H  0.42036070  0.81380369  0.31368372     0.18800
C993        C  0.28581861  0.66535958  0.13624213    -0.07100
C994        C  0.27036315  0.63368044  0.14181127    -0.18200
C995        C  0.26977621  0.58870578  0.12300233     0.10100
C996        C  0.28478552  0.57498422  0.09691461    -0.07000
C997        C  0.29991495  0.60768410  0.09050133    -0.18200
C998        C  0.30054974  0.65234602  0.10947517     0.10200
S999        S  0.25010946  0.54981478  0.13576659    -0.33200
S1000       S  0.32028358  0.69152833  0.09714985    -0.33200
H1001       H  0.30958963  0.73418165  0.09924681     0.28200
H1002       H  0.26184706  0.50941633  0.14101353     0.28200
H1003       H  0.25906270  0.64298335  0.16265347     0.18800
H1004       H  0.31134583  0.59889090  0.06983799     0.18800
C1005       C  0.24268515  0.03932698  0.24959376    -0.07100
C1006       C  0.25358824  0.01941192  0.28077265    -0.18200
C1007       C  0.25908789  0.97118890  0.27997810     0.10100
C1008       C  0.25365232  0.94220842  0.24702649    -0.07000
C1009       C  0.24234426  0.96181883  0.21639663    -0.18200
C1010       C  0.23704230  0.00997370  0.21697056     0.10200
S1011       S  0.27245716  0.94673343  0.32184384    -0.33200
S1012       S  0.22342209  0.03182397  0.17460240    -0.33200
H1013       H  0.23026523  0.07926808  0.17673168     0.28200
H1014       H  0.27543631  0.99025428  0.34228418     0.28200
H1015       H  0.25697201  0.04107486  0.30680979     0.18800
H1016       H  0.23861715  0.94034467  0.19040914     0.18800
C1017       C  0.24255024  0.95027135  0.04216216    -0.07100
C1018       C  0.25799725  0.97238145  0.06208453    -0.18200
C1019       C  0.26932701  0.94757913  0.09009757     0.10100
C1020       C  0.26502356  0.89914270  0.09986665    -0.07000
C1021       C  0.24996578  0.87667200  0.07881249    -0.18200
C1022       C  0.23897088  0.90111606  0.05010547     0.10200
S1023       S  0.28902427  0.98030512  0.11180286    -0.33200
S1024       S  0.22088099  0.86673611  0.02433603    -0.33200
H1025       H  0.22546953  0.88507844  0.98612061     0.28200
H1026       H  0.30207665  0.94227702  0.10736539     0.28200
H1027       H  0.26129148  0.00971048  0.05598503     0.18800
H1028       H  0.24639520  0.83955513  0.08507845     0.18800
C1029       C  0.32205030  0.84753232  0.33067417    -0.07100
C1030       C  0.32301957  0.89677697  0.33940646    -0.18200
C1031       C  0.32260785  0.91363403  0.37908311     0.10100
C1032       C  0.32045976  0.88043328  0.41118038    -0.07000
C1033       C  0.32164435  0.83116690  0.40256884    -0.18200
C1034       C  0.32292759  0.81448717  0.36306835     0.10200
S1035       S  0.32463359  0.97761020  0.38749855    -0.33200
S1036       S  0.32554937  0.75060754  0.35649615    -0.33200
H1037       H  0.33796479  0.75487592  0.32341009     0.28200
H1038       H  0.32824897  0.99118566  0.34751419     0.28200
H1039       H  0.32308552  0.92245156  0.31498598     0.18800
H1040       H  0.32097593  0.80506091  0.42668936     0.18800
C1041       C  0.39347643  0.87863571  0.17251365    -0.07100
C1042       C  0.39001107  0.82890111  0.17604827    -0.18200
C1043       C  0.37145367  0.80996252  0.17592754     0.10100
C1044       C  0.35568175  0.84130366  0.17313410    -0.07000
C1045       C  0.35925790  0.89061207  0.16624922    -0.18200
C1046       C  0.37786597  0.90937366  0.16550624     0.10200
S1047       S  0.36896982  0.74572439  0.17979561    -0.33200
S1048       S  0.38072058  0.97259786  0.15557655    -0.33200
H1049       H  0.39848687  0.96805953  0.13612425     0.28200
H1050       H  0.35268563  0.74327552  0.15501908     0.28200
H1051       H  0.40185366  0.80442034  0.18062290     0.18800
H1052       H  0.34743978  0.91544359  0.16307856     0.18800
C1053       C  0.50525707  0.77624244  0.03857762    -0.07100
C1054       C  0.49174262  0.75279698  0.06302563    -0.18200
C1055       C  0.48104581  0.77752676  0.09223469     0.10100
C1056       C  0.48373150  0.82775472  0.09731190    -0.07000
C1057       C  0.49686973  0.85122191  0.07172749    -0.18200
C1058       C  0.50738879  0.82642825  0.04252549     0.10200
S1059       S  0.46410155  0.74370116  0.12213189    -0.33200
S1060       S  0.52273494  0.86144674  0.01025841    -0.33200
H1061       H  0.51800953  0.83619639  0.97507120     0.28200
H1062       H  0.46959864  0.69761272  0.10949958     0.28200
H1063       H  0.48975443  0.71449180  0.05953769     0.18800
H1064       H  0.49917500  0.88952449  0.07451040     0.18800
C1065       C  0.50016937  0.53919583  0.98629002    -0.07100
C1066       C  0.50734426  0.51108592  0.01806349    -0.18200
C1067       C  0.50291661  0.46259303  0.02167129     0.10100
C1068       C  0.49031837  0.44134370  0.99380407    -0.07000
C1069       C  0.48300912  0.46939679  0.96214346    -0.18200
C1070       C  0.48746220  0.51800019  0.95848253     0.10200
S1071       S  0.51327287  0.43076985  0.06347076    -0.33200
S1072       S  0.47656924  0.55020897  0.91750221    -0.33200
H1073       H  0.46997491  0.58758469  0.94221496     0.28200
H1074       H  0.52087009  0.39424688  0.03914354     0.28200
H1075       H  0.51723683  0.52659495  0.03954465     0.18800
H1076       H  0.47298778  0.45374866  0.94100601     0.18800
C1077       C  0.51226411  0.58297921  0.84187298    -0.07100
C1078       C  0.51356507  0.53244435  0.84224050    -0.18200
C1079       C  0.50224843  0.50365777  0.81716070     0.10100
C1080       C  0.48926437  0.52522374  0.78999992    -0.07000
C1081       C  0.48823675  0.57550384  0.78865630    -0.18200
C1082       C  0.49974799  0.60443759  0.81339023     0.10200
S1083       S  0.50432024  0.43947188  0.82316059    -0.33200
S1084       S  0.49795518  0.66831762  0.80591973    -0.33200
H1085       H  0.51788104  0.67564400  0.80677627     0.28200
H1086       H  0.48476475  0.42985058  0.81710574     0.28200
H1087       H  0.52284194  0.51468206  0.86365569     0.18800
H1088       H  0.47880849  0.59255738  0.76709444     0.18800
C1089       C  0.64042848  0.59064264  0.92012662    -0.07100
C1090       C  0.63724739  0.63912081  0.90937740    -0.18200
C1091       C  0.61883937  0.65887641  0.90886578     0.10100
C1092       C  0.60318802  0.62993351  0.91963224    -0.07000
C1093       C  0.60614497  0.58076244  0.92712606    -0.18200
C1094       C  0.62444656  0.56074717  0.92696776     0.10200
S1095       S  0.61623045  0.72094724  0.89454898    -0.33200
S1096       S  0.62634296  0.49714810  0.93614021    -0.33200
H1097       H  0.64226363  0.49088996  0.91093092     0.28200
H1098       H  0.59751148  0.71640789  0.87948294     0.28200
H1099       H  0.64923713  0.66270162  0.90322749     0.18800
H1100       H  0.59410278  0.55787716  0.93464449     0.18800
C1101       C  0.73863836  0.46081569  0.05129313    -0.07100
C1102       C  0.74133518  0.41155115  0.04500530    -0.18200
C1103       C  0.75315022  0.38415379  0.07026506     0.10100
C1104       C  0.76192718  0.40570626  0.10421879    -0.07000
C1105       C  0.75948317  0.45548047  0.10980468    -0.18200
C1106       C  0.74806233  0.48304302  0.08390464     0.10200
S1107       S  0.75709451  0.32258107  0.05606219    -0.33200
S1108       S  0.74551453  0.54607373  0.09509608    -0.33200
H1109       H  0.72687160  0.55079390  0.07972111     0.28200
H1110       H  0.77652850  0.32257460  0.06715630     0.28200
H1111       H  0.73478683  0.39460429  0.01912361     0.18800
H1112       H  0.76585140  0.47298745  0.13559713     0.18800
C1113       C  0.50200287  0.69334775  0.23912308    -0.07100
C1114       C  0.49546214  0.71666396  0.27373525    -0.18200
C1115       C  0.49267514  0.76626347  0.27409758     0.10100
C1116       C  0.49593340  0.79295326  0.23866209    -0.07000
C1117       C  0.50248727  0.76960788  0.20402891    -0.18200
C1118       C  0.50558616  0.72009266  0.20389146     0.10200
S1119       S  0.48559891  0.79544747  0.32025492    -0.33200
S1120       S  0.51369726  0.69112255  0.15842829    -0.33200
H1121       H  0.51737213  0.73332082  0.13645461     0.28200
H1122       H  0.48481625  0.75395807  0.34436180     0.28200
H1123       H  0.49368890  0.69637565  0.30126421     0.18800
H1124       H  0.50421936  0.78977060  0.17643326     0.18800
C1125       C  0.51255954  0.65051524  0.38252105    -0.07100
C1126       C  0.49622959  0.63040500  0.40088380    -0.18200
C1127       C  0.48532604  0.65545851  0.42943799     0.10100
C1128       C  0.49069460  0.70268213  0.44056191    -0.07000
C1129       C  0.50739375  0.72227235  0.42312377    -0.18200
C1130       C  0.51837912  0.69688431  0.39491556     0.10200
S1131       S  0.46493983  0.62539984  0.45166026    -0.33200
S1132       S  0.53986489  0.72552640  0.37692241    -0.33200
H1133       H  0.55089312  0.68333543  0.37816937     0.28200
H1134       H  0.46473757  0.58496546  0.42645700     0.28200
H1135       H  0.49162865  0.59484487  0.39215561     0.18800
H1136       H  0.51206437  0.75795463  0.43155059     0.18800
C1137       C  0.50127288  0.44507402  0.19527307    -0.07100
C1138       C  0.48277946  0.45931707  0.18314639    -0.18200
C1139       C  0.47150288  0.43119882  0.15731035     0.10100
C1140       C  0.47892605  0.38808438  0.14122897    -0.07000
C1141       C  0.49683143  0.37227220  0.15527271    -0.18200
C1142       C  0.50790464  0.39948769  0.18225134     0.10200
S1143       S  0.44759564  0.45203392  0.14698186    -0.33200
S1144       S  0.53046839  0.37467380  0.19880569    -0.33200
H1145       H  0.52713974  0.32726505  0.18609607     0.28200
H1146       H  0.43947302  0.40577066  0.14603247     0.28200
H1147       H  0.47688581  0.49281754  0.19393189     0.18800
H1148       H  0.50269288  0.33920580  0.14360234     0.18800
C1149       C  0.56983634  0.59064692  0.15198324    -0.07100
C1150       C  0.57447631  0.63860305  0.14295080    -0.18200
C1151       C  0.57565098  0.65467003  0.10323613     0.10100
C1152       C  0.57116138  0.62284422  0.07159356    -0.07000
C1153       C  0.56912302  0.57384447  0.08026535    -0.18200
C1154       C  0.56881287  0.55708558  0.11994708     0.10200
S1155       S  0.58284304  0.71609891  0.09502908    -0.33200
S1156       S  0.56680571  0.49299426  0.12833519    -0.33200
H1157       H  0.56459031  0.47907426  0.08802839     0.28200
H1158       H  0.59185700  0.70704654  0.05802561     0.28200
H1159       H  0.57651558  0.66437358  0.16688738     0.18800
H1160       H  0.56664943  0.54887613  0.05595659     0.18800
C1161       C  0.67201023  0.63888065  0.15631801    -0.07100
C1162       C  0.67520497  0.67335765  0.12614600    -0.18200
C1163       C  0.67438202  0.66125820  0.08561217     0.10100
C1164       C  0.67118023  0.61290644  0.07472397    -0.07000
C1165       C  0.66530494  0.58020430  0.10445591    -0.18200
C1166       C  0.66497307  0.59321280  0.14496514     0.10200
S1167       S  0.67958755  0.70825792  0.05001820    -0.33200
S1168       S  0.65563773  0.54988646  0.18019660    -0.33200
H1169       H  0.64706868  0.58451511  0.20509836     0.28200
H1170       H  0.66310847  0.69907210  0.02695317     0.28200
H1171       H  0.67950093  0.70953260  0.13395793     0.18800
H1172       H  0.66161252  0.54372515  0.09623260     0.18800
C1173       C  0.64026097  0.62905173  0.30798065    -0.07100
C1174       C  0.63696354  0.57908936  0.30565698    -0.18200
C1175       C  0.61843197  0.55979129  0.30541510     0.10100
C1176       C  0.60255523  0.59092662  0.30685226    -0.07000
C1177       C  0.60594170  0.64061954  0.31146853    -0.18200
C1178       C  0.62445017  0.65978699  0.31235513     0.10200
S1179       S  0.61612279  0.49540902  0.30303290    -0.33200
S1180       S  0.62685187  0.72371737  0.31888898    -0.33200
H1181       H  0.64387283  0.72099008  0.34135514     0.28200
H1182       H  0.59977404  0.49331031  0.32761089     0.28200
H1183       H  0.64891646  0.55469455  0.30250699     0.18800
H1184       H  0.59403895  0.66537745  0.31295058     0.18800
C1185       C  0.72935675  0.58615018  0.38969234    -0.07100
C1186       C  0.74395919  0.60886224  0.41183921    -0.18200
C1187       C  0.75465294  0.58426525  0.44090849     0.10100
C1188       C  0.75155719  0.53458435  0.44722726    -0.07000
C1189       C  0.73630354  0.51243810  0.42670626    -0.18200
C1190       C  0.72496272  0.53770706  0.39902420     0.10200
S1191       S  0.77141304  0.61918096  0.46992799    -0.33200
S1192       S  0.70481653  0.50621948  0.37782016    -0.33200
H1193       H  0.69256768  0.54624609  0.37892897     0.28200
H1194       H  0.76657679  0.59741389  0.50673543     0.28200
H1195       H  0.74733302  0.64625726  0.40626944     0.18800
H1196       H  0.73310522  0.47493413  0.43226958     0.18800
C1197       C  0.74340844  0.54497901  0.24755885    -0.07100
C1198       C  0.73389894  0.51346145  0.22101599    -0.18200
C1199       C  0.73715129  0.46417710  0.22151217     0.10100
C1200       C  0.75124491  0.44525712  0.24737702    -0.07000
C1201       C  0.76063503  0.47659998  0.27418597    -0.18200
C1202       C  0.75726127  0.52590722  0.27393862     0.10200
S1203       S  0.72255239  0.42807983  0.18864675    -0.33200
S1204       S  0.77155722  0.56193382  0.30738049    -0.33200
H1205       H  0.77572071  0.59672435  0.27792088     0.28200
H1206       H  0.71859334  0.39342247  0.21834224     0.28200
H1207       H  0.72300650  0.52685332  0.20074289     0.18800
H1208       H  0.77158875  0.46303305  0.29423064     0.18800
C1209       C  0.53398235  0.32557379  0.38721161    -0.07100
C1210       C  0.51877024  0.33627816  0.36118002    -0.18200
C1211       C  0.51785176  0.38020343  0.34081192     0.10100
C1212       C  0.53260133  0.41433425  0.34646334    -0.07000
C1213       C  0.54757489  0.40416404  0.37307986    -0.18200
C1214       C  0.54820971  0.36093469  0.39422670     0.10200
S1215       S  0.49850749  0.39040014  0.30566882    -0.33200
S1216       S  0.56713291  0.35467869  0.43073265    -0.33200
H1217       H  0.55545008  0.33399903  0.46043521     0.28200
H1218       H  0.48846087  0.34748247  0.31293433     0.28200
H1219       H  0.50776219  0.30959568  0.35607416     0.18800
H1220       H  0.55876425  0.43054235  0.37790905     0.18800
C1221       C  0.50104226  0.28515475  0.53416691    -0.07100
C1222       C  0.48425736  0.26581302  0.55124032    -0.18200
C1223       C  0.47301656  0.29170473  0.57850446     0.10100
C1224       C  0.47877181  0.33821446  0.59074243    -0.07000
C1225       C  0.49514152  0.35829697  0.57256487    -0.18200
C1226       C  0.50608802  0.33290007  0.54441537     0.10200
S1227       S  0.45139330  0.26311979  0.59589242    -0.33200
S1228       S  0.52606624  0.36428120  0.52252473    -0.33200
H1229       H  0.52107630  0.35177375  0.48294372     0.28200
H1230       H  0.44046656  0.30548855  0.59492094     0.28200
H1231       H  0.47972571  0.22983304  0.54335567     0.18800
H1232       H  0.49985795  0.39392973  0.58105125     0.18800
C1233       C  0.49165068  0.03459360  0.28291567    -0.07100
C1234       C  0.50600581  0.01289975  0.30620570    -0.18200
C1235       C  0.51675689  0.03899012  0.33408193     0.10100
C1236       C  0.51256328  0.08812256  0.34087879    -0.07000
C1237       C  0.49883268  0.11035617  0.31602714    -0.18200
C1238       C  0.48870729  0.08454450  0.28676948     0.10200
S1239       S  0.53564386  0.00689719  0.35938019    -0.33200
S1240       S  0.47276509  0.11780512  0.25455061    -0.33200
H1241       H  0.47765830  0.09254302  0.21948933     0.28200
H1242       H  0.54885906  0.04491853  0.35626341     0.28200
H1243       H  0.50893238  0.97493666  0.30272760     0.18800
H1244       H  0.49564552  0.14812734  0.31972543     0.18800
C1245       C  0.49865411  0.04276120  0.48400669    -0.07100
C1246       C  0.50588036  0.01692930  0.51711474    -0.18200
C1247       C  0.50354952  0.96739145  0.52065345     0.10100
C1248       C  0.49322267  0.94257189  0.49088088    -0.07000
C1249       C  0.48637991  0.96798034  0.45721692    -0.18200
C1250       C  0.48863172  0.01760330  0.45379230     0.10200
S1251       S  0.51347406  0.93723129  0.56399752    -0.33200
S1252       S  0.47827767  0.04599328  0.41032555    -0.33200
H1253       H  0.46879503  0.08126126  0.43294849     0.28200
H1254       H  0.51751738  0.97849770  0.58677388     0.28200
H1255       H  0.51397946  0.03560173  0.54000683     0.18800
H1256       H  0.47808241  0.94934828  0.43453481     0.18800
C1257       C  0.70593991  0.91208774  0.39081277    -0.07100
C1258       C  0.69077112  0.90135841  0.36474842    -0.18200
C1259       C  0.69009757  0.85808464  0.34345994     0.10100
C1260       C  0.70474056  0.82335176  0.34893224    -0.07000
C1261       C  0.71975746  0.83393331  0.37559851    -0.18200
C1262       C  0.72044791  0.87747783  0.39678144     0.10200
S1263       S  0.67050019  0.85097783  0.30872010    -0.33200
S1264       S  0.73918911  0.88677298  0.43342232    -0.33200
H1265       H  0.74851186  0.84253745  0.42823486     0.28200
H1266       H  0.68223860  0.83643078  0.27670055     0.28200
H1267       H  0.67950073  0.92748564  0.36022410     0.18800
H1268       H  0.73087925  0.80755192  0.38035350     0.18800
C1269       C  0.63802462  0.09519029  0.42233667    -0.07100
C1270       C  0.63461311  0.14456578  0.41565491    -0.18200
C1271       C  0.61607504  0.16370325  0.41546240     0.10100
C1272       C  0.60035356  0.13322792  0.42251792    -0.07000
C1273       C  0.60365217  0.08346840  0.42646491    -0.18200
C1274       C  0.62213913  0.06420527  0.42615701     0.10200
S1275       S  0.61345225  0.22709430  0.40620303    -0.33200
S1276       S  0.62438651  0.00002078  0.43120476    -0.33200
H1277       H  0.64055436  0.99648709  0.40624506     0.28200
H1278       H  0.59565779  0.22317760  0.38670260     0.28200
H1279       H  0.64653652  0.16912348  0.41219241     0.18800
H1280       H  0.59172817  0.05925218  0.43140905     0.18800
C1281       C  0.75578745  0.20610870  0.29634978    -0.07100
C1282       C  0.75487909  0.15614410  0.29192249    -0.18200
C1283       C  0.74320022  0.12764966  0.31694034     0.10100
C1284       C  0.73187043  0.14973842  0.34716305    -0.07000
C1285       C  0.73304420  0.20002282  0.35142442    -0.18200
C1286       C  0.74505184  0.22806874  0.32703044     0.10200
S1287       S  0.74273531  0.06354096  0.30856143    -0.33200
S1288       S  0.74748704  0.29161812  0.33694519    -0.33200
H1289       H  0.73684967  0.29239229  0.37277732     0.28200
H1290       H  0.75783924  0.06169423  0.28071724     0.28200
H1291       H  0.76296843  0.13962677  0.26798841     0.18800
H1292       H  0.72512125  0.21743229  0.37512645     0.18800
C1293       C  0.74167361  0.19588243  0.48915829    -0.07100
C1294       C  0.73385275  0.22492806  0.51954854    -0.18200
C1295       C  0.73927695  0.27278537  0.52439936     0.10100
C1296       C  0.75331685  0.29232781  0.49869739    -0.07000
C1297       C  0.76134543  0.26319411  0.46856606    -0.18200
C1298       C  0.75581628  0.21530194  0.46362749     0.10200
S1299       S  0.72845107  0.30726486  0.56438763    -0.33200
S1300       S  0.76713800  0.18027449  0.42474695    -0.33200
H1301       H  0.77379610  0.21946347  0.40204571     0.28200
H1302       H  0.71819658  0.26957556  0.58254241     0.28200
H1303       H  0.72297567  0.21022254  0.53915705     0.18800
H1304       H  0.77251110  0.27765658  0.44948554     0.18800
C1305       C  0.53831628  0.82085030  0.88770635    -0.07100
C1306       C  0.52233506  0.83347719  0.86444995    -0.18200
C1307       C  0.52157676  0.87689822  0.84341847     0.10100
C1308       C  0.53698032  0.90983047  0.84609869    -0.07000
C1309       C  0.55298537  0.89737302  0.86922634    -0.18200
C1310       C  0.55376652  0.85401006  0.89039398     0.10200
S1311       S  0.50107671  0.88616578  0.81155832    -0.33200
S1312       S  0.57460517  0.84504870  0.92144500    -0.33200
H1313       H  0.56384799  0.83406068  0.95599353     0.28200
H1314       H  0.51214265  0.89999186  0.77829403     0.28200
H1315       H  0.51043038  0.80874817  0.86167110     0.18800
H1316       H  0.56489234  0.92219800  0.87158589     0.18800
C1317       C  0.50021360  0.18839173  0.74076865    -0.07100
C1318       C  0.50734976  0.21591461  0.70851487    -0.18200
C1319       C  0.50306038  0.26469381  0.70438517     0.10100
C1320       C  0.49148726  0.28704395  0.73360283    -0.07000
C1321       C  0.48428947  0.25928873  0.76563134    -0.18200
C1322       C  0.48783586  0.21029325  0.76860521     0.10200
S1323       S  0.51245465  0.29686508  0.66151952    -0.33200
S1324       S  0.47610000  0.17839275  0.80874116    -0.33200
H1325       H  0.46965800  0.14121489  0.78356286     0.28200
H1326       H  0.51766529  0.25636905  0.63887639     0.28200
H1327       H  0.51698658  0.19943458  0.68716536     0.18800
H1328       H  0.47493971  0.27546472  0.78773790     0.18800
C1329       C  0.48817477  0.20291284  0.93830539    -0.07100
C1330       C  0.49002364  0.15318921  0.94375524    -0.18200
C1331       C  0.50179282  0.12549082  0.91872245     0.10100
C1332       C  0.51179567  0.14760681  0.88643034    -0.07000
C1333       C  0.51007554  0.19771069  0.88169082    -0.18200
C1334       C  0.49822086  0.22515422  0.90654769     0.10200
S1335       S  0.50371452  0.06256224  0.93071829    -0.33200
S1336       S  0.49545633  0.28788847  0.89432943    -0.33200
H1337       H  0.47620070  0.29094293  0.90632463     0.28200
H1338       H  0.52350299  0.06042110  0.92321700     0.28200
H1339       H  0.48268174  0.13593418  0.96857490     0.18800
H1340       H  0.51710541  0.21559148  0.85681223     0.18800
C1341       C  0.56770322  0.10331805  0.65689490    -0.07100
C1342       C  0.56477942  0.15217964  0.64880179    -0.18200
C1343       C  0.56361746  0.16967833  0.60942475     0.10100
C1344       C  0.56513533  0.13707843  0.57677585    -0.07000
C1345       C  0.56961749  0.08884078  0.58508707    -0.18200
C1346       C  0.57121701  0.07188361  0.62446491     0.10200
S1347       S  0.55963376  0.23344372  0.60250264    -0.33200
S1348       S  0.57779704  0.00980431  0.63100716    -0.33200
H1349       H  0.58867594  0.01793528  0.66592207     0.28200
H1350       H  0.55860075  0.24645261  0.64321795     0.28200
H1351       H  0.56238455  0.17652434  0.67355229     0.18800
H1352       H  0.57150354  0.06356203  0.56074654     0.18800
C1353       C  0.48280714  0.89391771  0.63926082    -0.07100
C1354       C  0.50051291  0.87680312  0.65343944    -0.18200
C1355       C  0.51168625  0.90289255  0.68091579     0.10100
C1356       C  0.50503869  0.94783866  0.69514576    -0.07000
C1357       C  0.48683832  0.96361113  0.68239563    -0.18200
C1358       C  0.47567241  0.93719758  0.65532876     0.10200
S1359       S  0.53423233  0.87744802  0.69704201    -0.33200
S1360       S  0.45228562  0.96038765  0.64341116    -0.33200
H1361       H  0.44348264  0.91498751  0.64131246     0.28200
H1362       H  0.53451081  0.83807446  0.67070133     0.28200
H1363       H  0.50604930  0.84345967  0.64164567     0.18800
H1364       H  0.48109700  0.99710826  0.69355663     0.18800
C1365       C  0.70812066  0.32392534  0.85555885    -0.07100
C1366       C  0.69242789  0.35511715  0.85196425    -0.18200
C1367       C  0.69229925  0.40001229  0.87038575     0.10100
C1368       C  0.70806699  0.41440156  0.89408798    -0.07000
C1369       C  0.72369180  0.38329409  0.89822120    -0.18200
C1370       C  0.72390887  0.33816474  0.87963163     0.10200
S1371       S  0.67186673  0.43780820  0.86077055    -0.33200
S1372       S  0.74411386  0.29906161  0.88874636    -0.33200
H1373       H  0.75387912  0.32870328  0.91610422     0.28200
H1374       H  0.68243462  0.48077685  0.85875421     0.28200
H1375       H  0.68031731  0.34533723  0.83336223     0.18800
H1376       H  0.73555156  0.39391334  0.91716676     0.18800
C1377       C  0.67707374  0.13780412  0.65926914    -0.07100
C1378       C  0.67770822  0.17273812  0.62860074    -0.18200
C1379       C  0.67691800  0.16033352  0.58772104     0.10100
C1380       C  0.67535464  0.11140196  0.57674830    -0.07000
C1381       C  0.67314508  0.07698695  0.60735478    -0.18200
C1382       C  0.67399194  0.08921932  0.64815536     0.10200
S1383       S  0.67921211  0.20745134  0.55053803    -0.33200
S1384       S  0.67224042  0.04114858  0.68468970    -0.33200
H1385       H  0.66687545  0.00431639  0.65813300     0.28200
H1386       H  0.68111640  0.24623839  0.57719822     0.28200
H1387       H  0.67961540  0.21003197  0.63663165     0.18800
H1388       H  0.67160377  0.03962715  0.59920223     0.18800
C1389       C  0.64124324  0.13809945  0.81251709    -0.07100
C1390       C  0.63824763  0.08792744  0.81308591    -0.18200
C1391       C  0.61985356  0.06781349  0.81253223     0.10100
C1392       C  0.60377238  0.09817950  0.81104464    -0.07000
C1393       C  0.60674012  0.14830543  0.81282442    -0.18200
C1394       C  0.62513679  0.16842676  0.81373942     0.10200
S1395       S  0.61793362  0.00329977  0.81346702    -0.33200
S1396       S  0.62702237  0.23287952  0.81616870    -0.33200
H1397       H  0.64378924  0.23310645  0.83956391     0.28200
H1398       H  0.60090433  0.00223555  0.83595641     0.28200
H1399       H  0.65038089  0.06379753  0.81237265     0.18800
H1400       H  0.59460151  0.17242204  0.81195473     0.18800
C1401       C  0.74079360  0.28841996  0.70043366    -0.07100
C1402       C  0.75410998  0.26511899  0.67572972    -0.18200
C1403       C  0.76551582  0.29027967  0.64816360     0.10100
C1404       C  0.76367443  0.34095194  0.64417467    -0.07000
C1405       C  0.75068796  0.36437717  0.66995633    -0.18200
C1406       C  0.73934635  0.33893512  0.69767672     0.10200
S1407       S  0.78159320  0.25439217  0.61854524    -0.33200
S1408       S  0.72402585  0.37315547  0.73015980    -0.33200
H1409       H  0.70721419  0.35416107  0.71318496     0.28200
H1410       H  0.79774713  0.28171581  0.62933799     0.28200
H1411       H  0.75561171  0.22646819  0.67771971     0.18800
H1412       H  0.74898277  0.40295159  0.66804957     0.18800
C1413       C  0.20817670  0.41159815  0.39341574    -0.07100
C1414       C  0.22360147  0.40274511  0.36735087    -0.18200
C1415       C  0.22527736  0.35906088  0.34653240     0.10100
C1416       C  0.21121406  0.32303888  0.35183774    -0.07000
C1417       C  0.19600283  0.33160756  0.37828121    -0.18200
C1418       C  0.19452899  0.37459720  0.39960974     0.10200
S1419       S  0.24486639  0.35111377  0.31183677    -0.33200
S1420       S  0.17538135  0.37842993  0.43569558    -0.33200
H1421       H  0.18705186  0.39738851  0.46626692     0.28200
H1422       H  0.25065631  0.39947120  0.31045932     0.28200
H1423       H  0.23426883  0.43045083  0.36284588     0.18800
H1424       H  0.18522760  0.30409247  0.38284360     0.18800
C1425       C  0.23621985  0.45604993  0.54625801    -0.07100
C1426       C  0.25556365  0.46707463  0.55449892    -0.18200
C1427       C  0.26675990  0.43885664  0.58038365     0.10100
C1428       C  0.25875245  0.39778361  0.59885522    -0.07000
C1429       C  0.23967400  0.38583201  0.58984149    -0.18200
C1430       C  0.22822615  0.41501088  0.56526477     0.10200
S1431       S  0.29134244  0.45658781  0.58755531    -0.33200
S1432       S  0.20328290  0.39912250  0.56215269    -0.33200
H1433       H  0.19701690  0.44539663  0.57278427     0.28200
H1434       H  0.29839016  0.40950870  0.59120482     0.28200
H1435       H  0.26223930  0.49791219  0.54042335     0.18800
H1436       H  0.23308409  0.35530214  0.60459968     0.18800
C1437       C  0.23242093  0.64824770  0.34842557    -0.07100
C1438       C  0.25042912  0.63117696  0.33614742    -0.18200
C1439       C  0.26226521  0.65751818  0.31015082     0.10100
C1440       C  0.25603252  0.70239793  0.29478885    -0.07000
C1441       C  0.23785248  0.71902719  0.30674562    -0.18200
C1442       C  0.22603255  0.69259162  0.33264694     0.10200
S1443       S  0.28515223  0.63145959  0.29856669    -0.33200
S1444       S  0.20269920  0.71701907  0.34303094    -0.33200
H1445       H  0.19333383  0.67226826  0.34225253     0.28200
H1446       H  0.29540348  0.67093333  0.31387703     0.28200
H1447       H  0.25579941  0.59766782  0.34823572     0.18800
H1448       H  0.23250443  0.75290211  0.29538098     0.18800
C1449       C  0.24952842  0.79418059  0.49606980    -0.07100
C1450       C  0.24128348  0.77072905  0.52907039    -0.18200
C1451       C  0.23706004  0.72187473  0.52760266     0.10100
C1452       C  0.24074560  0.69587458  0.49209904    -0.07000
C1453       C  0.24870701  0.71946867  0.45884571    -0.18200
C1454       C  0.25288002  0.76839086  0.46025217     0.10200
S1455       S  0.22731369  0.69441102  0.57225597    -0.33200
S1456       S  0.26214858  0.79609586  0.41519947    -0.33200
H1457       H  0.25600414  0.84270422  0.42466600     0.28200
H1458       H  0.23429405  0.64808813  0.56423302     0.28200
H1459       H  0.23934094  0.78972280  0.55714854     0.18800
H1460       H  0.25060461  0.70039302  0.43078757     0.18800
C1461       C  0.03352741  0.81922190  0.37898894    -0.07100
C1462       C  0.02257686  0.85737460  0.39388437    -0.18200
C1463       C  0.02436819  0.90367276  0.37794864     0.10100
C1464       C  0.03686003  0.91187529  0.34527288    -0.07000
C1465       C  0.04784251  0.87357490  0.33051306    -0.18200
C1466       C  0.04630907  0.82751244  0.34695512     0.10200
S1467       S  0.01135095  0.95118477  0.40238374    -0.33200
S1468       S  0.06071487  0.78059517  0.32523084    -0.33200
H1469       H  0.04785868  0.74297786  0.33358900     0.28200
H1470       H  0.02540112  0.98658668  0.39588339     0.28200
H1471       H  0.01333885  0.85162763  0.41959702     0.18800
H1472       H  0.05727212  0.87917401  0.30510629     0.18800
C1473       C  0.13896713  0.59874954  0.41867205    -0.07100
C1474       C  0.13574012  0.64870136  0.41607456    -0.18200
C1475       C  0.11722945  0.66806265  0.41524115     0.10100
C1476       C  0.10126809  0.63711458  0.41702275    -0.07000
C1477       C  0.10449529  0.58711332  0.41718245    -0.18200
C1478       C  0.12299109  0.56773676  0.41800218     0.10200
S1479       S  0.11498797  0.73242376  0.41252641    -0.33200
S1480       S  0.12514977  0.50328376  0.41893927    -0.33200
H1481       H  0.14219606  0.50198414  0.39653807     0.28200
H1482       H  0.09794709  0.73199647  0.39002178     0.28200
H1483       H  0.14776265  0.67332389  0.41653529     0.18800
H1484       H  0.09245367  0.56258622  0.41851389     0.18800
C1485       C  0.00977583  0.58326489  0.34032619    -0.07100
C1486       C  0.00938084  0.53276171  0.34310795    -0.18200
C1487       C  0.99927910  0.50448863  0.31533331     0.10100
C1488       C  0.98869663  0.52690771  0.28444455    -0.07000
C1489       C  0.98933378  0.57701025  0.28086127    -0.18200
C1490       C  0.00007089  0.60534880  0.30764863     0.10200
S1491       S  0.99935745  0.43981576  0.32057217    -0.33200
S1492       S  0.00164098  0.66921729  0.29840039    -0.33200
H1493       H  0.99336746  0.66897061  0.25987479     0.28200
H1494       H  0.01197308  0.43741026  0.35342803     0.28200
H1495       H  0.01662028  0.51522555  0.36783243     0.18800
H1496       H  0.98170900  0.59387335  0.25628376     0.18800
C1497       C  0.98976963  0.44375469  0.48903561    -0.07100
C1498       C  0.99899143  0.46558288  0.52164117    -0.18200
C1499       C  0.00339421  0.51452641  0.52096676     0.10100
C1500       C  0.99861019  0.54209863  0.48672987    -0.07000
C1501       C  0.98905132  0.52048359  0.45455120    -0.18200
C1502       C  0.98485740  0.47167000  0.45503575     0.10200
S1503       S  0.01468886  0.54177914  0.56423387    -0.33200
S1504       S  0.97333916  0.44707147  0.41113609    -0.33200
H1505       H  0.98114404  0.40082737  0.41539812     0.28200
H1506       H  0.01631033  0.49978678  0.58752402     0.28200
H1507       H  0.00181498  0.44480998  0.54853076     0.18800
H1508       H  0.98598767  0.54099414  0.42759010     0.18800
C1509       C  0.20683393  0.81985323  0.85014407    -0.07100
C1510       C  0.21936890  0.85635232  0.83757200    -0.18200
C1511       C  0.21962764  0.90118908  0.85649346     0.10100
C1512       C  0.20762944  0.90931003  0.88992692    -0.07000
C1513       C  0.19520480  0.87241062  0.90258757    -0.18200
C1514       C  0.19459752  0.82799267  0.88293104     0.10200
S1515       S  0.23464737  0.94714843  0.83494898    -0.33200
S1516       S  0.17875540  0.78130942  0.90082446    -0.33200
H1517       H  0.17257895  0.80518842  0.93564199     0.28200
H1518       H  0.22155235  0.98462532  0.84141002     0.28200
H1519       H  0.22849878  0.85049313  0.81174254     0.18800
H1520       H  0.18610229  0.87819456  0.92840283     0.18800
C1521       C  0.17198681  0.63566769  0.65657600    -0.07100
C1522       C  0.17354258  0.67077873  0.62629241    -0.18200
C1523       C  0.17226966  0.65888960  0.58558295     0.10100
C1524       C  0.17080617  0.61003367  0.57423333    -0.07000
C1525       C  0.16694968  0.57590869  0.60434760    -0.18200
C1526       C  0.16666254  0.58853289  0.64503957     0.10200
S1527       S  0.17364743  0.70774804  0.55017387    -0.33200
S1528       S  0.15935409  0.54273692  0.68015553    -0.33200
H1529       H  0.14831446  0.57431934  0.70356983     0.28200
H1530       H  0.15740373  0.69247677  0.52863848     0.28200
H1531       H  0.17638621  0.70781763  0.63415533     0.18800
H1532       H  0.16450118  0.53875901  0.59622650     0.18800
C1533       C  0.24885446  0.44188607  0.74391899    -0.07100
C1534       C  0.25642081  0.46953843  0.77551481    -0.18200
C1535       C  0.25369641  0.51902125  0.77735896     0.10100
C1536       C  0.24241069  0.54177307  0.74774611    -0.07000
C1537       C  0.23485586  0.51399017  0.71622912    -0.18200
C1538       C  0.23725933  0.46451440  0.71493879     0.10200
S1539       S  0.26504506  0.55027943  0.81826363    -0.33200
S1540       S  0.22480554  0.43285358  0.67585459    -0.33200
H1541       H  0.21789368  0.39697269  0.70188645     0.28200
H1542       H  0.27278635  0.58622093  0.79332584     0.28200
H1543       H  0.26545015  0.45273587  0.79793380     0.18800
H1544       H  0.22586902  0.53052937  0.69356364     0.18800
C1545       C  0.22920386  0.58327771  0.89025343    -0.07100
C1546       C  0.24485694  0.60465464  0.91002984    -0.18200
C1547       C  0.25606379  0.57948709  0.93793199     0.10100
C1548       C  0.25221535  0.53042248  0.94608806    -0.07000
C1549       C  0.23614133  0.50944096  0.92742284    -0.18200
C1550       C  0.22450025  0.53525017  0.90051076     0.10200
S1551       S  0.27468599  0.61313364  0.96264771    -0.33200
S1552       S  0.20363768  0.50488405  0.88133403    -0.33200
H1553       H  0.19180938  0.54562785  0.88348705     0.28200
H1554       H  0.26980590  0.59657362  0.00127791     0.28200
H1555       H  0.24874056  0.64145495  0.90327569     0.18800
H1556       H  0.23249002  0.47241670  0.93389899     0.18800
C1557       C  0.23935199  0.77849991  0.69612420    -0.07100
C1558       C  0.23803453  0.82870797  0.69629906    -0.18200
C1559       C  0.24908882  0.85742730  0.67020677     0.10100
C1560       C  0.26157101  0.83534490  0.64192920    -0.07000
C1561       C  0.26324090  0.78495933  0.64296904    -0.18200
C1562       C  0.25238702  0.75662005  0.66933372     0.10200
S1563       S  0.24695716  0.92196271  0.67437357    -0.33200
S1564       S  0.25528798  0.69241059  0.66581649    -0.33200
H1565       H  0.23579025  0.68167409  0.67138401     0.28200
H1566       H  0.23563705  0.92292530  0.70926609     0.28200
H1567       H  0.22847205  0.84551717  0.71758433     0.18800
H1568       H  0.27258564  0.76692841  0.62193384     0.18800
C1569       C  0.03197363  0.41768547  0.84370856    -0.07100
C1570       C  0.04866926  0.40629774  0.86512402    -0.18200
C1571       C  0.05032680  0.36370417  0.88708042     0.10100
C1572       C  0.03511383  0.32987764  0.88689826    -0.07000
C1573       C  0.01811849  0.34219684  0.86661423    -0.18200
C1574       C  0.01640347  0.38519321  0.84503896     0.10200
S1575       S  0.07206491  0.35642385  0.91555772    -0.33200
S1576       S  0.99437020  0.39458021  0.81803698    -0.33200
H1577       H  0.00350519  0.40623609  0.78165483     0.28200
H1578       H  0.06237686  0.34561894  0.95151574     0.28200
H1579       H  0.06059728  0.43120343  0.86514607     0.18800
H1580       H  0.00613267  0.31751253  0.86646219     0.18800
C1581       C  0.06679856  0.60191730  0.65059156    -0.07100
C1582       C  0.06745215  0.65115745  0.64183086    -0.18200
C1583       C  0.06768800  0.66793457  0.60218389     0.10100
C1584       C  0.06667583  0.63450018  0.57014193    -0.07000
C1585       C  0.06799929  0.58531962  0.57896673    -0.18200
C1586       C  0.06847640  0.56876369  0.61856227     0.10200
S1587       S  0.06894794  0.73212110  0.59375411    -0.33200
S1588       S  0.07106383  0.50492384  0.62571057    -0.33200
H1589       H  0.08277283  0.50937699  0.65991107     0.28200
H1590       H  0.07091211  0.74615515  0.63408474     0.28200
H1591       H  0.06674855  0.67680832  0.66612727     0.18800
H1592       H  0.06797179  0.55919377  0.55490631     0.18800
C1593       C  0.13900069  0.63255432  0.80719314    -0.07100
C1594       C  0.13556006  0.58338995  0.80011542    -0.18200
C1595       C  0.11695281  0.56431890  0.79843855     0.10100
C1596       C  0.10112917  0.59499587  0.80429205    -0.07000
C1597       C  0.10471832  0.64372376  0.81364965    -0.18200
C1598       C  0.12332153  0.66264489  0.81509909     0.10200
S1599       S  0.11388640  0.50108116  0.78805985    -0.33200
S1600       S  0.12605311  0.72536888  0.82698378    -0.33200
H1601       H  0.14394186  0.72049844  0.84590767     0.28200
H1602       H  0.13329729  0.48818685  0.79044746     0.28200
H1603       H  0.14754720  0.56008996  0.79378237     0.18800
H1604       H  0.09289864  0.66808775  0.81845555     0.18800
C1605       C  0.00086044  0.45974427  0.68471125    -0.07100
C1606       C  0.00459601  0.41059439  0.68158676    -0.18200
C1607       C  0.99427956  0.38113270  0.65539776     0.10100
C1608       C  0.97944695  0.40058214  0.63104893    -0.07000
C1609       C  0.97583607  0.45021377  0.63409088    -0.18200
C1610       C  0.98649408  0.47987065  0.65983236     0.10200
S1611       S  0.00123068  0.31916888  0.65491142    -0.33200
S1612       S  0.98195280  0.54349177  0.65716282    -0.33200
H1613       H  0.00134075  0.55665821  0.66035082     0.28200
H1614       H  0.98316108  0.30494013  0.66913464     0.28200
H1615       H  0.01553266  0.39453582  0.70036008     0.18800
H1616       H  0.96513423  0.46671984  0.61503447     0.18800
C1617       C  0.95833307  0.66158553  0.09248314    -0.07100
C1618       C  0.94308034  0.62946468  0.08593018    -0.18200
C1619       C  0.94295474  0.58334401  0.10259253     0.10100
C1620       C  0.95829318  0.56842864  0.12728155    -0.07000
C1621       C  0.97371552  0.59997018  0.13329354    -0.18200
C1622       C  0.97379382  0.64626340  0.11686543     0.10200
S1623       S  0.92312290  0.54485672  0.08974919    -0.33200
S1624       S  0.99341098  0.68471236  0.13076022    -0.33200
H1625       H  0.98147638  0.72426311  0.13824836     0.28200
H1626       H  0.93397574  0.50239746  0.08875761     0.28200
H1627       H  0.93127642  0.63975512  0.06665511     0.18800
H1628       H  0.98540135  0.58946495  0.15282914     0.18800
C1629       C  0.98263091  0.89682338  0.13856933    -0.07100
C1630       C  0.97950903  0.94664740  0.14160238    -0.18200
C1631       C  0.99051439  0.97567595  0.16695393     0.10100
C1632       C  0.00456967  0.95475169  0.19199435    -0.07000
C1633       C  0.00734699  0.90500733  0.19027524    -0.18200
C1634       C  0.99664169  0.87577956  0.16416487     0.10200
S1635       S  0.98686018  0.03965268  0.16335551    -0.33200
S1636       S  0.00160837  0.81214032  0.16422728    -0.33200
H1637       H  0.01329825  0.81103602  0.19860500     0.28200
H1638       H  0.00634812  0.05160510  0.16715717     0.28200
H1639       H  0.96915825  0.96399363  0.12222861     0.18800
H1640       H  0.01795118  0.88894001  0.20977472     0.18800
C1641       C  0.99424020  0.94353603  0.99141673    -0.07100
C1642       C  0.98854837  0.96663967  0.95578673    -0.18200
C1643       C  0.99183798  0.01541271  0.94968638     0.10100
C1644       C  0.00163189  0.04194348  0.97926386    -0.07000
C1645       C  0.00733597  0.01885066  0.01488297    -0.18200
C1646       C  0.00420711  0.96998901  0.02082266     0.10200
S1647       S  0.98373166  0.04088275  0.90303023    -0.33200
S1648       S  0.01314443  0.94414567  0.06666566    -0.33200
H1649       H  0.02178180  0.90498055  0.04730359     0.28200
H1650       H  0.97477960  0.08025714  0.92143957     0.28200
H1651       H  0.98056045  0.94691313  0.93326413     0.18800
H1652       H  0.01537728  0.03856594  0.03733085     0.18800
C1653       C  0.98906312  0.71017214  0.93764961    -0.07100
C1654       C  0.98657519  0.66027059  0.93615288    -0.18200
C1655       C  0.99732574  0.63139059  0.91008975     0.10100
C1656       C  0.01027428  0.65272203  0.88224409    -0.07000
C1657       C  0.01302257  0.70276372  0.88446931    -0.18200
C1658       C  0.00283788  0.73136721  0.91179779     0.10200
S1659       S  0.99416419  0.56750575  0.91563473    -0.33200
S1660       S  0.00775432  0.79496180  0.91105009    -0.33200
H1661       H  0.98855206  0.80882062  0.91591091     0.28200
H1662       H  0.01392824  0.55788708  0.91515959     0.28200
H1663       H  0.97669991  0.64319620  0.95683268     0.18800
H1664       H  0.02281308  0.72029340  0.86390826     0.18800
C1665       C  0.78539104  0.16741639  0.13925324    -0.07100
C1666       C  0.77259811  0.13112978  0.15111563    -0.18200
C1667       C  0.77324113  0.08523494  0.13396997     0.10100
C1668       C  0.78654455  0.07547487  0.10302811    -0.07000
C1669       C  0.79929239  0.11197997  0.09119816    -0.18200
C1670       C  0.79883638  0.15755474  0.10876146     0.10200
S1671       S  0.75762554  0.04006023  0.15484080    -0.33200
S1672       S  0.81538852  0.20200110  0.09001844    -0.33200
H1673       H  0.80324619  0.24152311  0.09613311     0.28200
H1674       H  0.77093895  0.00246738  0.15146683     0.28200
H1675       H  0.76264547  0.13784350  0.17542718     0.18800
H1676       H  0.80938573  0.10547979  0.06712374     0.18800
C1677       C  0.75374649  0.03619658  0.95019705    -0.07100
C1678       C  0.73711911  0.01666775  0.93255612    -0.18200
C1679       C  0.72593518  0.04273196  0.90507475     0.10100
C1680       C  0.73160513  0.08955064  0.89332025    -0.07000
C1681       C  0.74788129  0.10956356  0.91189398    -0.18200
C1682       C  0.75872942  0.08408132  0.94023848     0.10200
S1683       S  0.70441694  0.01424964  0.88705557    -0.33200
S1684       S  0.77844590  0.11567858  0.96301189    -0.33200
H1685       H  0.77356684  0.10183675  0.00238035     0.28200
H1686       H  0.69341772  0.05649087  0.88806671     0.28200
H1687       H  0.73266484  0.98053390  0.94025802     0.18800
H1688       H  0.75253886  0.14540082  0.90377002     0.18800
C1689       C  0.85337485  0.88852151  0.06589890    -0.07100
C1690       C  0.85653972  0.83844442  0.06752794    -0.18200
C1691       C  0.87501681  0.81888214  0.06661417     0.10100
C1692       C  0.89094844  0.84968777  0.06346667    -0.07000
C1693       C  0.88782720  0.89975567  0.06496966    -0.18200
C1694       C  0.86937846  0.91931893  0.06651609     0.10200
S1695       S  0.87725997  0.75454010  0.06939087    -0.33200
S1696       S  0.86726828  0.98371052  0.06899192    -0.33200
H1697       H  0.85046740  0.98338844  0.09224699     0.28200
H1698       H  0.89487686  0.75501403  0.08984675     0.28200
H1699       H  0.84448848  0.81395040  0.06776505     0.18800
H1700       H  0.89985879  0.92423830  0.06330489     0.18800
C1701       C  0.73927064  0.78601228  0.19883989    -0.07100
C1702       C  0.75682556  0.76811770  0.18421314    -0.18200
C1703       C  0.76836792  0.79454578  0.15769190     0.10100
C1704       C  0.76218123  0.83991606  0.14378054    -0.07000
C1705       C  0.74495800  0.85845729  0.15921594    -0.18200
C1706       C  0.73367901  0.83266307  0.18664185     0.10200
S1707       S  0.79102074  0.76862219  0.14374796    -0.33200
S1708       S  0.71257198  0.86218554  0.20515400    -0.33200
H1709       H  0.71679521  0.85234958  0.24568018     0.28200
H1710       H  0.80095407  0.81261290  0.14353472     0.28200
H1711       H  0.76178143  0.73302921  0.19360552     0.18800
H1712       H  0.73990039  0.89320586  0.14918093     0.18800
C1713       C  0.75116693  0.79414566  0.00157151    -0.07100
C1714       C  0.75970554  0.76471281  0.97220576    -0.18200
C1715       C  0.75593944  0.71572571  0.97006153     0.10100
C1716       C  0.74230904  0.69533762  0.99619729    -0.07000
C1717       C  0.73423570  0.72415373  0.02639269    -0.18200
C1718       C  0.73821770  0.77309769  0.02901386     0.10200
S1719       S  0.76884372  0.68196709  0.93284288    -0.33200
S1720       S  0.72620589  0.80590407  0.06804860    -0.33200
H1721       H  0.71939228  0.84138263  0.04155284     0.28200
H1722       H  0.77394583  0.64530131  0.95992300     0.28200
H1723       H  0.77008803  0.77958114  0.95143545     0.18800
H1724       H  0.72382704  0.70888239  0.04688165     0.18800
C1725       C  0.95654759  0.07191790  0.63055709    -0.07100
C1726       C  0.96974179  0.10768363  0.64120393    -0.18200
C1727       C  0.96932147  0.15299183  0.62309176     0.10100
C1728       C  0.95579147  0.16270896  0.59253107    -0.07000
C1729       C  0.94265781  0.12654463  0.58190208    -0.18200
C1730       C  0.94294277  0.08145771  0.60036415     0.10200
S1731       S  0.98543694  0.19757427  0.64253124    -0.33200
S1732       S  0.92606432  0.03708428  0.58299159    -0.33200
H1733       H  0.93814533  0.99741563  0.58915614     0.28200
H1734       H  0.97170312  0.23428110  0.64049174     0.28200
H1735       H  0.97989066  0.10102125  0.66520939     0.18800
H1736       H  0.93238692  0.13284920  0.55809649     0.18800
C1737       C  0.98996431  0.03784644  0.78225271    -0.07100
C1738       C  0.00780645  0.02067714  0.79598020    -0.18200
C1739       C  0.01993964  0.04829929  0.82046649     0.10100
C1740       C  0.01411358  0.09428532  0.83364628    -0.07000
C1741       C  0.99674466  0.11251917  0.81835374    -0.18200
C1742       C  0.98476212  0.08526038  0.79317250     0.10200
S1743       S  0.04292511  0.02297642  0.83265761    -0.33200
S1744       S  0.96321790  0.11380165  0.77577239    -0.33200
H1745       H  0.95131347  0.08108269  0.79618646     0.28200
H1746       H  0.05274143  0.06704279  0.83003150     0.28200
H1747       H  0.01258945  0.98524792  0.78727457     0.18800
H1748       H  0.99189982  0.14773918  0.82749652     0.18800
C1749       C  0.92511092  0.88412548  0.82415302    -0.07100
C1750       C  0.92389175  0.91947848  0.85421214    -0.18200
C1751       C  0.92353960  0.90756084  0.89510562     0.10100
C1752       C  0.92500992  0.85881288  0.90696562    -0.07000
C1753       C  0.92462359  0.82348232  0.87681668    -0.18200
C1754       C  0.92447242  0.83528316  0.83604223     0.10200
S1755       S  0.92221847  0.95671950  0.93002398    -0.33200
S1756       S  0.92487918  0.78568916  0.80141237    -0.33200
H1757       H  0.90852981  0.80158909  0.78061488     0.28200
H1758       H  0.90697056  0.93621140  0.95172563     0.28200
H1759       H  0.92377675  0.95711288  0.84593069     0.18800
H1760       H  0.92516063  0.78581644  0.88489998     0.18800
C1761       C  0.98004115  0.83704524  0.59092605    -0.07100
C1762       C  0.99631904  0.85688792  0.57217452    -0.18200
C1763       C  0.00738386  0.83085138  0.54455786     0.10100
C1764       C  0.00226401  0.78311880  0.53438564    -0.07000
C1765       C  0.98561871  0.76383752  0.55220179    -0.18200
C1766       C  0.97446290  0.79002451  0.57957481     0.10200
S1767       S  0.02766010  0.86137449  0.52309921    -0.33200
S1768       S  0.95301397  0.76137687  0.59779972    -0.33200
H1769       H  0.94181951  0.80321720  0.59526224     0.28200
H1770       H  0.04084013  0.83006846  0.54141535     0.28200
H1771       H  0.00098448  0.89275027  0.58006168     0.18800
H1772       H  0.98106440  0.72778886  0.54461772     0.18800
C1773       C  0.99916024  0.69635887  0.73660617    -0.07100
C1774       C  0.99234222  0.72020778  0.77068583    -0.18200
C1775       C  0.98938633  0.76953706  0.77019452     0.10100
C1776       C  0.99258718  0.79554811  0.73444162    -0.07000
C1777       C  0.99946134  0.77179887  0.70031357    -0.18200
C1778       C  0.00265977  0.72245623  0.70091924     0.10200
S1779       S  0.98170896  0.79757147  0.81621419    -0.33200
S1780       S  0.01091911  0.69472393  0.65514541    -0.33200
H1781       H  0.00384075  0.64868555  0.66415206     0.28200
H1782       H  0.98919020  0.84321870  0.80705653     0.28200
H1783       H  0.99056591  0.70091220  0.79875933     0.18800
H1784       H  0.00115969  0.79115307  0.67225076     0.18800
C1785       C  0.78208628  0.67047325  0.63604113    -0.07100
C1786       C  0.76824944  0.63535067  0.64473199    -0.18200
C1787       C  0.76874783  0.59005103  0.62653370     0.10100
C1788       C  0.78315345  0.57964767  0.59795541    -0.07000
C1789       C  0.79659101  0.61567275  0.58847210    -0.18200
C1790       C  0.79611794  0.66073394  0.60680514     0.10200
S1791       S  0.75133378  0.54658128  0.64316477    -0.33200
S1792       S  0.81342855  0.70480591  0.59058404    -0.33200
H1793       H  0.80137203  0.74467119  0.59595095     0.28200
H1794       H  0.76452746  0.50858943  0.64551296     0.28200
H1795       H  0.75754892  0.64231432  0.66751722     0.18800
H1796       H  0.80738693  0.60919173  0.56580437     0.18800
C1797       C  0.75974756  0.90186739  0.59732512    -0.07100
C1798       C  0.76284607  0.95174177  0.59448025    -0.18200
C1799       C  0.75217435  0.98068089  0.56830594     0.10100
C1800       C  0.73793641  0.95978196  0.54358336    -0.07000
C1801       C  0.73519153  0.90997272  0.54537536    -0.18200
C1802       C  0.74616649  0.88081857  0.57081463     0.10200
S1803       S  0.75676630  0.04440776  0.56985135    -0.33200
S1804       S  0.74229745  0.81706418  0.56655204    -0.33200
H1805       H  0.76194837  0.80609004  0.56651985     0.28200
H1806       H  0.73742477  0.05774010  0.56651458     0.28200
H1807       H  0.77307160  0.96903706  0.61418552     0.18800
H1808       H  0.72481532  0.89323247  0.52564935     0.18800
C1809       C  0.74922375  0.94741805  0.74485950    -0.07100
C1810       C  0.75670319  0.97398010  0.77720025    -0.18200
C1811       C  0.75448081  0.02358075  0.77947863     0.10100
C1812       C  0.74368123  0.04747825  0.74972219    -0.07000
C1813       C  0.73612848  0.02072430  0.71756337    -0.18200
C1814       C  0.73828607  0.97122855  0.71540230     0.10200
S1815       S  0.76597020  0.05359739  0.82084150    -0.33200
S1816       S  0.72715934  0.94129021  0.67356424    -0.33200
H1817       H  0.71886803  0.90531174  0.69765472     0.28200
H1818       H  0.77419576  0.08930498  0.79636454     0.28200
H1819       H  0.76549839  0.95627980  0.79959408     0.18800
H1820       H  0.72756471  0.03827477  0.69469941     0.18800
C1821       C  0.81557614  0.85824913  0.82836060    -0.07100
C1822       C  0.81702541  0.82314450  0.85863791    -0.18200
C1823       C  0.81774744  0.83518881  0.89935601     0.10100
C1824       C  0.81691124  0.88403749  0.91101955    -0.07000
C1825       C  0.81681853  0.91929269  0.88062286    -0.18200
C1826       C  0.81595692  0.90728368  0.83972253     0.10200
S1827       S  0.81838610  0.78582025  0.93435676    -0.33200
S1828       S  0.81369068  0.95542863  0.80340992    -0.33200
H1829       H  0.81560844  0.99410787  0.83018847     0.28200
H1830       H  0.83470352  0.80337785  0.95433053     0.28200
H1831       H  0.81700445  0.78545503  0.85067861     0.18800
H1832       H  0.81640468  0.95676552  0.88900481     0.18800
C1833       C  0.85126958  0.84912774  0.67241097    -0.07100
C1834       C  0.85466068  0.89876601  0.66695775    -0.18200
C1835       C  0.87323852  0.91802845  0.66621294     0.10100
C1836       C  0.88907448  0.88741827  0.67139102    -0.07000
C1837       C  0.88573989  0.83752482  0.67418064    -0.18200
C1838       C  0.86719517  0.81817208  0.67439663     0.10200
S1839       S  0.87573780  0.98178612  0.65860778    -0.33200
S1840       S  0.86490790  0.75381558  0.67745524    -0.33200
H1841       H  0.84841483  0.75139669  0.65328240     0.28200
H1842       H  0.89342025  0.97902617  0.63861936     0.28200
H1843       H  0.84271519  0.92334287  0.66484499     0.18800
H1844       H  0.89770845  0.81322640  0.67770434     0.18800
C1845       C  0.75278418  0.70429900  0.79391146    -0.07100
C1846       C  0.73294201  0.71100332  0.79954000    -0.18200
C1847       C  0.72229045  0.68216602  0.82604002     0.10100
C1848       C  0.73145598  0.64512447  0.84773998    -0.07000
C1849       C  0.75100451  0.63711743  0.84106542    -0.18200
C1850       C  0.76179683  0.66673097  0.81565967     0.10200
S1851       S  0.69699715  0.69388392  0.83021574    -0.33200
S1852       S  0.78722353  0.65645688  0.81536533    -0.33200
H1853       H  0.79168569  0.70477957  0.82350923     0.28200
H1854       H  0.69176211  0.64595551  0.83793954     0.28200
H1855       H  0.72552369  0.73889374  0.78305720     0.18800
H1856       H  0.75835104  0.60963845  0.85820874     0.18800
loop_ 
_geom_bond_atom_site_label_1 
_geom_bond_atom_site_label_2 
_geom_bond_distance 
_geom_bond_site_symmetry_2 
_ccdc_geom_bond_type 
Fe1          O17   2.051       .  S
Fe1           O7   2.105       .  S
Fe1          O14   2.130       .  S
Fe1           O6   2.051       .  S
Fe1          O12   1.922       .  S
Fe2           O5   2.008       .  S
Fe2           O9   2.095       .  S
Fe2          O13   2.033       .  S
Fe2          O18   2.105       .  S
Fe2          O12   1.921       .  S
Fe3          O21   2.100       .  S
Fe3           O8   2.051       .  S
Fe3          O15   2.060       .  S
Fe3           O4   2.100       .  S
Fe3          O12   1.935       .  S
O4           C11   1.280       .  A
O5           C19   1.257       .  A
O6           C11   1.274       .  A
O7           C10   1.276       .  A
O8           C20   1.268       .  A
O9           C22   1.273       .  A
C10          O15   1.269       .  A
C10        C1845   1.502       .  S
C11        C1785   1.477       .  S
O13          C16   1.264       .  A
O14          C16   1.282       .  A
C16        C1833   1.494       .  S
O17          C22   1.269       .  A
O18          C20   1.279       .  A
C19          O21   1.274       .  A
C19        C1809   1.467       .  S
C20        C1797   1.500       .  S
C22        C1821   1.493       .  S
Fe23         O39   2.050       .  S
Fe23         O29   2.124   1_565  S
Fe23         O36   2.139       .  S
Fe23         O28   2.050   1_565  S
Fe23         O34   1.928       .  S
Fe24         O27   2.012       .  S
Fe24         O31   2.091       .  S
Fe24         O35   2.032       .  S
Fe24         O40   2.113       .  S
Fe24         O34   1.921       .  S
Fe25         O43   2.097       .  S
Fe25         O30   2.063       .  S
Fe25         O37   2.058       .  S
Fe25         O26   2.091   1_565  S
Fe25         O34   1.937       .  S
O26          C33   1.277       .  A
O27          C41   1.256       .  A
O28          C33   1.272       .  A
O29          C32   1.281       .  A
O30          C42   1.272       .  A
O31          C44   1.271       .  A
C32          O37   1.271   1_545  A
C32        C1737   1.509       .  S
C33        C1725   1.471       .  S
O35          C38   1.266       .  A
O36          C38   1.286       .  A
C38        C1836   1.492       .  S
O39          C44   1.268       .  A
O40          C42   1.278       .  A
C41          O43   1.274       .  A
C41        C1776   1.456       .  S
C42        C1761   1.505       .  S
C44        C1749   1.492       .  S
Fe45         O61   2.048   1_554  S
Fe45         O51   2.114   1_564  S
Fe45         O58   2.137       .  S
Fe45         O50   2.055   1_565  S
Fe45         O56   1.921       .  S
Fe46         O49   2.007   1_554  S
Fe46         O53   2.091   1_554  S
Fe46         O57   2.027       .  S
Fe46         O62   2.113       .  S
Fe46         O56   1.919       .  S
Fe47         O65   2.115       .  S
Fe47         O52   2.052       .  S
Fe47         O59   2.054   1_554  S
Fe47         O48   2.100   1_565  S
Fe47         O56   1.935       .  S
O48          C55   1.279       .  A
O49          C63   1.254   1_556  A
O50          C55   1.274       .  A
O51          C54   1.281       .  A
O52          C64   1.270       .  A
O53          C66   1.270       .  A
C54          O59   1.270   1_545  A
C54        C1677   1.501       .  S
C55        C1668   1.486       .  S
O57          C60   1.265       .  A
O58          C60   1.287       .  A
C60        C1689   1.491       .  S
O61          C66   1.266       .  A
O62          C64   1.278       .  A
C63          O65   1.275       .  A
C63        C1713   1.478       .  S
C64        C1704   1.495       .  S
C66        C1824   1.495       .  S
Fe67         O83   2.040   1_554  S
Fe67         O73   2.123   1_554  S
Fe67         O80   2.138       .  S
Fe67         O72   2.051       .  S
Fe67         O78   1.925       .  S
Fe68         O71   2.007   1_554  S
Fe68         O75   2.096   1_554  S
Fe68         O79   2.026       .  S
Fe68         O84   2.105       .  S
Fe68         O78   1.921       .  S
Fe69         O87   2.107       .  S
Fe69         O74   2.053       .  S
Fe69         O81   2.049   1_554  S
Fe69         O70   2.101       .  S
Fe69         O78   1.936       .  S
O70          C77   1.278       .  A
O71          C85   1.257   1_556  A
O72          C77   1.272       .  A
O73          C76   1.283       .  A
O74          C86   1.268       .  A
O75          C88   1.272       .  A
C76          O81   1.268       .  A
C76        C1653   1.494       .  S
C77        C1617   1.491       .  S
O79          C82   1.264       .  A
O80          C82   1.285       .  A
C82        C1692   1.491       .  S
O83          C88   1.266       .  A
O84          C86   1.279       .  A
C85          O87   1.275       .  A
C85        C1641   1.466   1_554  S
C86        C1629   1.502       .  S
C88        C1752   1.494       .  S
Fe89        O105   2.127       .  S
Fe89         O95   2.042       .  S
Fe89        O102   2.035       .  S
Fe89         O94   2.104       .  S
Fe89        O100   1.922       .  S
Fe90         O93   2.122       .  S
Fe90         O97   2.033       .  S
Fe90        O101   2.099       .  S
Fe90        O106   2.015       .  S
Fe90        O100   1.921       .  S
Fe91        O109   2.048       .  S
Fe91         O96   2.097       .  S
Fe91        O103   2.103       .  S
Fe91         O92   2.050       .  S
Fe91        O100   1.934       .  S
O92          C99   1.266       .  A
O93         C107   1.282       .  A
O94          C99   1.279       .  A
O95          C98   1.272       .  A
O96         C108   1.275       .  A
O97         C110   1.266       .  A
C98         O103   1.280       .  A
C98        C1569   1.485       .  S
C99        C1605   1.489       .  S
O101        C104   1.275       .  A
O102        C104   1.262       .  A
C104       C1581   1.484       .  S
O105        C110   1.283       .  A
O106        C108   1.256       .  A
C107        O109   1.268       .  A
C107       C1656   1.507       .  S
C108       C1773   1.456   1_455  S
C110       C1596   1.497       .  S
Fe111       O127   2.134       .  S
Fe111       O117   2.058       .  S
Fe111       O124   2.053       .  S
Fe111       O116   2.125       .  S
Fe111       O122   1.927       .  S
Fe112       O115   2.119       .  S
Fe112       O119   2.028       .  S
Fe112       O123   2.090       .  S
Fe112       O128   2.012       .  S
Fe112       O122   1.918       .  S
Fe113       O131   2.057       .  S
Fe113       O118   2.100       .  S
Fe113       O125   2.088       .  S
Fe113       O114   2.045       .  S
Fe113       O122   1.942       .  S
O114        C121   1.269       .  A
O115        C129   1.279       .  A
O116        C121   1.284       .  A
O117        C120   1.271       .  A
O118        C130   1.271       .  A
O119        C132   1.267       .  A
C120        O125   1.274       .  A
C120       C1509   1.474       .  S
C121       C1557   1.490       .  S
O123        C126   1.271       .  A
O124        C126   1.268       .  A
C126       C1521   1.495       .  S
O127        C132   1.286       .  A
O128        C130   1.255       .  A
C129        O131   1.272       .  A
C129       C1545   1.502       .  S
C130       C1536   1.472       .  S
C132       C1593   1.487       .  S
Fe133       O149   2.129       .  S
Fe133       O139   2.038       .  S
Fe133       O146   2.029       .  S
Fe133       O138   2.118       .  S
Fe133       O144   1.922       .  S
Fe134       O137   2.109       .  S
Fe134       O141   2.032       .  S
Fe134       O145   2.099       .  S
Fe134       O150   2.011       .  S
Fe134       O144   1.922       .  S
Fe135       O153   2.058       .  S
Fe135       O140   2.102       .  S
Fe135       O147   2.107       .  S
Fe135       O136   2.059       .  S
Fe135       O144   1.933       .  S
O136        C143   1.269       .  A
O137        C151   1.280       .  A
O138        C143   1.279       .  A
O139        C142   1.269       .  A
O140        C152   1.277       .  A
O141        C154   1.264       .  A
C142        O147   1.281       .  A
C142       C1461   1.469       .  S
C143       C1764   1.507       .  S
O145        C148   1.276       .  A
O146        C148   1.262       .  A
C148       C1584   1.485       .  S
O149        C154   1.282       .  A
O150        C152   1.256       .  A
C151        O153   1.270       .  A
C151       C1485   1.501       .  S
C152       C1500   1.461   1_455  S
C154       C1476   1.490       .  S
Fe155       O171   2.127       .  S
Fe155       O161   2.056       .  S
Fe155       O168   2.055       .  S
Fe155       O160   2.112       .  S
Fe155       O166   1.926       .  S
Fe156       O159   2.105       .  S
Fe156       O163   2.034       .  S
Fe156       O167   2.090       .  S
Fe156       O172   2.013       .  S
Fe156       O166   1.923       .  S
Fe157       O175   2.057       .  S
Fe157       O162   2.105       .  S
Fe157       O169   2.104       .  S
Fe157       O158   2.057       .  S
Fe157       O166   1.937       .  S
O158        C165   1.270       .  A
O159        C173   1.277       .  A
O160        C165   1.278       .  A
O161        C164   1.273       .  A
O162        C174   1.276       .  A
O163        C176   1.266       .  A
C164        O169   1.280       .  A
C164       C1413   1.490       .  S
C165       C1425   1.505       .  S
O167        C170   1.271       .  A
O168        C170   1.269       .  A
C170       C1524   1.491       .  S
O171        C176   1.283       .  A
O172        C174   1.257       .  A
C173        O175   1.271       .  A
C173       C1437   1.495       .  S
C174       C1452   1.460       .  S
C176       C1473   1.491       .  S
Fe177       O193   2.135       .  S
Fe177       O183   2.056       .  S
Fe177       O190   2.060       .  S
Fe177       O182   2.117       .  S
Fe177       O188   1.922       .  S
Fe178       O181   2.116       .  S
Fe178       O185   2.027       .  S
Fe178       O189   2.090       .  S
Fe178       O194   2.008       .  S
Fe178       O188   1.913       .  S
Fe179       O197   2.057       .  S
Fe179       O184   2.104       .  S
Fe179       O191   2.084       .  S
Fe179       O180   2.055       .  S
Fe179       O188   1.935       .  S
O180        C187   1.271       .  A
O181        C195   1.279       .  A
O182        C187   1.280       .  A
O183        C186   1.275       .  A
O184        C196   1.272       .  A
O185        C198   1.266       .  A
C186        O191   1.275       .  A
C186       C1365   1.487       .  S
C187       C1401   1.495       .  S
O189        C192   1.271       .  A
O190        C192   1.269       .  A
C192       C1377   1.499       .  S
O193        C198   1.286       .  A
O194        C196   1.255       .  A
C195        O197   1.271       .  A
C195       C1680   1.500       .  S
C196       C1812   1.471       .  S
C198       C1389   1.490       .  S
Fe199       O215   2.132       .  S
Fe199       O205   2.050   1_545  S
Fe199       O212   2.044       .  S
Fe199       O204   2.106   1_545  S
Fe199       O210   1.926       .  S
Fe200       O203   2.106       .  S
Fe200       O207   2.027       .  S
Fe200       O211   2.091       .  S
Fe200       O216   2.014       .  S
Fe200       O210   1.920       .  S
Fe201       O219   2.052       .  S
Fe201       O206   2.106       .  S
Fe201       O213   2.097   1_545  S
Fe201       O202   2.048       .  S
Fe201       O210   1.932       .  S
O202        C209   1.269   1_545  A
O203        C217   1.279       .  A
O204        C209   1.277       .  A
O205        C208   1.273       .  A
O206        C218   1.275       .  A
O207        C220   1.265       .  A
C208        O213   1.279       .  A
C208       C1308   1.483       .  S
C209       C1356   1.500       .  S
O211        C214   1.273       .  A
O212        C214   1.264       .  A
C214       C1341   1.483       .  S
O215        C220   1.284       .  A
O216        C218   1.258       .  A
C217        O219   1.268       .  A
C217       C1332   1.499       .  S
C218       C1317   1.474       .  S
C220       C1392   1.489       .  S
Fe221       O237   2.125       .  S
Fe221       O227   2.055   1_545  S
Fe221       O234   2.047       .  S
Fe221       O226   2.108   1_545  S
Fe221       O232   1.930       .  S
Fe222       O225   2.108       .  S
Fe222       O229   2.033       .  S
Fe222       O233   2.101       .  S
Fe222       O238   2.008       .  S
Fe222       O232   1.925       .  S
Fe223       O241   2.051       .  S
Fe223       O228   2.110       .  S
Fe223       O235   2.107   1_545  S
Fe223       O224   2.045       .  S
Fe223       O232   1.933       .  S
O224        C231   1.266   1_545  A
O225        C239   1.278       .  A
O226        C231   1.278       .  A
O227        C230   1.273       .  A
O228        C240   1.277       .  A
O229        C242   1.265       .  A
C230        O235   1.281       .  A
C230       C1257   1.486       .  S
C231       C1800   1.487       .  S
O233        C236   1.274       .  A
O234        C236   1.267       .  A
C236       C1380   1.494       .  S
O237        C242   1.283       .  A
O238        C240   1.259       .  A
C239        O241   1.267       .  A
C239       C1284   1.502       .  S
C240       C1293   1.477       .  S
C242       C1269   1.490       .  S
Fe243       O259   2.136       .  S
Fe243       O249   2.042       .  S
Fe243       O256   2.036       .  S
Fe243       O248   2.122       .  S
Fe243       O254   1.913       .  S
Fe244       O247   2.103       .  S
Fe244       O251   2.021       .  S
Fe244       O255   2.087       .  S
Fe244       O260   2.007       .  S
Fe244       O254   1.908       .  S
Fe245       O263   2.056       .  S
Fe245       O250   2.117       .  S
Fe245       O257   2.092       .  S
Fe245       O246   2.052       .  S
Fe245       O254   1.939       .  S
O246        C253   1.272       .  A
O247        C261   1.277       .  A
O248        C253   1.283       .  A
O249        C252   1.268       .  A
O250        C262   1.273       .  A
O251        C264   1.264       .  A
C252        O257   1.277       .  A
C252       C1209   1.478       .  S
C253       C1221   1.501       .  S
O255        C258   1.272       .  A
O256        C258   1.261       .  A
C258       C1344   1.490       .  S
O259        C264   1.286       .  A
O260        C262   1.252       .  A
C261        O263   1.272       .  A
C261       C1236   1.495       .  S
C262       C1245   1.476       .  S
C264       C1272   1.486       .  S
Fe265       O281   2.127       .  S
Fe265       O271   2.050       .  S
Fe265       O278   2.036       .  S
Fe265       O270   2.126       .  S
Fe265       O276   1.917       .  S
Fe266       O269   2.118       .  S
Fe266       O273   2.024       .  S
Fe266       O277   2.084       .  S
Fe266       O282   2.015       .  S
Fe266       O276   1.915       .  S
Fe267       O285   2.052       .  S
Fe267       O272   2.115       .  S
Fe267       O279   2.104       .  S
Fe267       O268   2.043       .  S
Fe267       O276   1.939       .  S
O268        C275   1.270       .  A
O269        C283   1.280       .  A
O270        C275   1.284       .  A
O271        C274   1.268       .  A
O272        C284   1.274       .  A
O273        C286   1.267       .  A
C274        O279   1.278       .  A
C274       C1260   1.492       .  S
C275       C1701   1.501       .  S
O277        C280   1.270       .  A
O278        C280   1.265       .  A
C280       C1161   1.484       .  S
O281        C286   1.286       .  A
O282        C284   1.252       .  A
C283        O285   1.271       .  A
C283       C1185   1.497       .  S
C284       C1197   1.481       .  S
C286       C1173   1.486       .  S
Fe287       O303   2.126       .  S
Fe287       O293   2.043       .  S
Fe287       O300   2.034       .  S
Fe287       O292   2.111       .  S
Fe287       O298   1.921       .  S
Fe288       O291   2.122       .  S
Fe288       O295   2.029       .  S
Fe288       O299   2.105       .  S
Fe288       O304   2.015       .  S
Fe288       O298   1.921       .  S
Fe289       O307   2.053       .  S
Fe289       O294   2.104       .  S
Fe289       O301   2.084       .  S
Fe289       O290   2.063       .  S
Fe289       O298   1.930       .  S
O290        C297   1.273       .  A
O291        C305   1.279       .  A
O292        C297   1.279       .  A
O293        C296   1.271       .  A
O294        C306   1.277       .  A
O295        C308   1.264       .  A
C296        O301   1.275       .  A
C296       C1212   1.472       .  S
C297       C1137   1.508       .  S
O299        C302   1.276       .  A
O300        C302   1.263       .  A
C302       C1149   1.490       .  S
O303        C308   1.282       .  A
O304        C306   1.257       .  A
C305        O307   1.269       .  A
C305       C1125   1.503       .  S
C306       C1113   1.461       .  S
C308       C1176   1.489       .  S
Fe309       O325   2.118       .  S
Fe309       O315   2.033       .  S
Fe309       O322   2.041   1_556  S
Fe309       O314   2.110   1_556  S
Fe309       O320   1.933       .  S
Fe310       O313   2.090       .  S
Fe310       O317   2.028       .  S
Fe310       O321   2.088   1_556  S
Fe310       O326   2.016       .  S
Fe310       O320   1.923       .  S
Fe311       O329   2.061       .  S
Fe311       O316   2.099       .  S
Fe311       O323   2.101       .  S
Fe311       O312   2.055   1_556  S
Fe311       O320   1.932       .  S
O312        C319   1.267       .  A
O313        C327   1.272       .  A
O314        C319   1.277       .  A
O315        C318   1.269       .  A
O316        C328   1.276       .  A
O317        C330   1.263       .  A
C318        O323   1.281       .  A
C318       C1368   1.477       .  S
C319       C1101   1.483       .  S
O321        C324   1.270       .  A
O322        C324   1.267       .  A
C324       C1164   1.477       .  S
O325        C330   1.281       .  A
O326        C328   1.262       .  A
C327        O329   1.270       .  A
C327       C1848   1.487       .  S
C328       C1716   1.472       .  S
C330       C1089   1.485       .  S
Fe331       O347   2.128       .  S
Fe331       O337   2.039       .  S
Fe331       O344   2.042   1_556  S
Fe331       O336   2.119   1_556  S
Fe331       O342   1.926       .  S
Fe332       O335   2.100       .  S
Fe332       O339   2.019       .  S
Fe332       O343   2.095   1_556  S
Fe332       O348   2.009       .  S
Fe332       O342   1.918       .  S
Fe333       O351   2.062       .  S
Fe333       O338   2.107       .  S
Fe333       O345   2.107       .  S
Fe333       O334   2.053       .  S
Fe333       O342   1.933       .  S
O334        C341   1.269   1_556  A
O335        C349   1.277       .  A
O336        C341   1.281       .  A
O337        C340   1.267       .  A
O338        C350   1.276       .  A
O339        C352   1.262       .  A
C340        O345   1.282       .  A
C340       C1305   1.489       .  S
C341       C1053   1.494       .  S
O343        C346   1.274       .  A
O344        C346   1.265       .  A
C346       C1152   1.482       .  S
O347        C352   1.283       .  A
O348        C350   1.259       .  A
C349        O351   1.270       .  A
C349       C1077   1.504       .  S
C350       C1065   1.472       .  S
C352       C1092   1.474       .  S
Fe353       O369   2.044       .  S
Fe353       O359   2.108       .  S
Fe353       O366   2.126       .  S
Fe353       O358   2.053       .  S
Fe353       O364   1.925       .  S
Fe354       O357   2.014       .  S
Fe354       O361   2.103       .  S
Fe354       O365   2.030       .  S
Fe354       O370   2.112       .  S
Fe354       O364   1.922       .  S
Fe355       O373   2.103       .  S
Fe355       O360   2.054       .  S
Fe355       O367   2.051       .  S
Fe355       O356   2.097       .  S
Fe355       O364   1.928       .  S
O356        C363   1.278       .  A
O357        C371   1.257       .  A
O358        C363   1.273       .  A
O359        C362   1.277       .  A
O360        C372   1.270       .  A
O361        C374   1.276       .  A
C362        O367   1.269       .  A
C362       C1440   1.502       .  S
C363        C993   1.482       .  S
O365        C368   1.264       .  A
O366        C368   1.282       .  A
C368       C1044   1.490       .  S
O369        C374   1.265       .  A
O370        C372   1.278       .  A
C371        O373   1.277       .  A
C371       C1008   1.468       .  S
C372       C1020   1.502       .  S
C374       C1029   1.492       .  S
Fe375       O391   2.044       .  S
Fe375       O381   2.111   1_565  S
Fe375       O388   2.130       .  S
Fe375       O380   2.044   1_565  S
Fe375       O386   1.925       .  S
Fe376       O379   2.016       .  S
Fe376       O383   2.093       .  S
Fe376       O387   2.024       .  S
Fe376       O392   2.117       .  S
Fe376       O386   1.917       .  S
Fe377       O395   2.107       .  S
Fe377       O382   2.055       .  S
Fe377       O389   2.044       .  S
Fe377       O378   2.096   1_565  S
Fe377       O386   1.939       .  S
O378        C385   1.277       .  A
O379        C393   1.253       .  A
O380        C385   1.270       .  A
O381        C384   1.280       .  A
O382        C394   1.272       .  A
O383        C396   1.273       .  A
C384        O389   1.269   1_545  A
C384       C1233   1.486       .  S
C385        C972   1.476       .  S
O387        C390   1.266       .  A
O388        C390   1.286       .  A
C390       C1041   1.485       .  S
O391        C396   1.262       .  A
O392        C394   1.279       .  A
C393        O395   1.275       .  A
C393       C1116   1.464       .  S
C394       C1056   1.505       .  S
C396        C984   1.494       .  S
Fe397       O413   2.045       .  S
Fe397       O403   2.128   1_565  S
Fe397       O410   2.140       .  S
Fe397       O402   2.055   1_565  S
Fe397       O408   1.925       .  S
Fe398       O401   2.016       .  S
Fe398       O405   2.099       .  S
Fe398       O409   2.032       .  S
Fe398       O414   2.118       .  S
Fe398       O408   1.926       .  S
Fe399       O417   2.103       .  S
Fe399       O404   2.053       .  S
Fe399       O411   2.048       .  S
Fe399       O400   2.102   1_565  S
Fe399       O408   1.936       .  S
O400        C407   1.279       .  A
O401        C415   1.256       .  A
O402        C407   1.271       .  A
O403        C406   1.283       .  A
O404        C416   1.269       .  A
O405        C418   1.275       .  A
C406        O411   1.268   1_545  A
C406        C945   1.494       .  S
C407        C936   1.492       .  S
O409        C412   1.266       .  A
O410        C412   1.286       .  A
C412        C957   1.494       .  S
O413        C418   1.265       .  A
O414        C416   1.282       .  A
C415        O417   1.275       .  A
C415       C1449   1.461       .  S
C416       C1560   1.506       .  S
C418       C1032   1.493       .  S
Fe419       O435   2.042       .  S
Fe419       O425   2.116       .  S
Fe419       O432   2.137       .  S
Fe419       O424   2.048       .  S
Fe419       O430   1.922       .  S
Fe420       O423   2.010       .  S
Fe420       O427   2.093       .  S
Fe420       O431   2.032       .  S
Fe420       O436   2.107       .  S
Fe420       O430   1.923       .  S
Fe421       O439   2.111       .  S
Fe421       O426   2.051       .  S
Fe421       O433   2.056       .  S
Fe421       O422   2.100       .  S
Fe421       O430   1.934       .  S
O422        C429   1.279       .  A
O423        C437   1.257       .  A
O424        C429   1.273       .  A
O425        C428   1.280       .  A
O426        C438   1.268       .  A
O427        C440   1.274       .  A
C428        O433   1.269       .  A
C428       C1128   1.505       .  S
C429        C921   1.482       .  S
O431        C434   1.265       .  A
O432        C434   1.285       .  A
C434        C960   1.496       .  S
O435        C440   1.265       .  A
O436        C438   1.277       .  A
C437        O439   1.277       .  A
C437       C1248   1.470       .  S
C438       C1353   1.493       .  S
C440        C981   1.482       .  S
Fe441       O457   2.042       .  S
Fe441       O447   2.117       .  S
Fe441       O454   2.123       .  S
Fe441       O446   2.049       .  S
Fe441       O452   1.925       .  S
Fe442       O445   2.017       .  S
Fe442       O449   2.098       .  S
Fe442       O453   2.030       .  S
Fe442       O458   2.114       .  S
Fe442       O452   1.922       .  S
Fe443       O461   2.103       .  S
Fe443       O448   2.054       .  S
Fe443       O455   2.045       .  S
Fe443       O444   2.105       .  S
Fe443       O452   1.937       .  S
O444        C451   1.279       .  A
O445        C459   1.255       .  A
O446        C451   1.270       .  A
O447        C450   1.280       .  A
O448        C460   1.271       .  A
O449        C462   1.274       .  A
C450        O455   1.268       .  A
C450       C1281   1.484       .  S
C451       C1665   1.479       .  S
O453        C456   1.266       .  A
O454        C456   1.283       .  A
C456        C909   1.492       .  S
O457        C462   1.262       .  A
O458        C460   1.281       .  A
C459        O461   1.273       .  A
C459       C1200   1.479       .  S
C460       C1104   1.499       .  S
C462        C900   1.497       .  S
Fe463       O479   2.052       .  S
Fe463       O469   2.118       .  S
Fe463       O476   2.127       .  S
Fe463       O468   2.050       .  S
Fe463       O474   1.922       .  S
Fe464       O467   2.013       .  S
Fe464       O471   2.085       .  S
Fe464       O475   2.023       .  S
Fe464       O480   2.102       .  S
Fe464       O474   1.918       .  S
Fe465       O483   2.110       .  S
Fe465       O470   2.044       .  S
Fe465       O477   2.043       .  S
Fe465       O466   2.097       .  S
Fe465       O474   1.928       .  S
O466        C473   1.278       .  A
O467        C481   1.257       .  A
O468        C473   1.271       .  A
O469        C472   1.281       .  A
O470        C482   1.265       .  A
O471        C484   1.270       .  A
C472        O477   1.268       .  A
C472       C1488   1.484       .  S
C473       C1620   1.482       .  S
O475        C478   1.264       .  A
O476        C478   1.284       .  A
C478        C912   1.480       .  S
O479        C484   1.268       .  A
O480        C482   1.277       .  A
C481        O483   1.275       .  A
C481        C876   1.473       .  S
C482        C885   1.496       .  S
C484        C861   1.491       .  S
Fe485       O501   2.050       .  S
Fe485       O491   2.103       .  S
Fe485       O498   2.115       .  S
Fe485       O490   2.049       .  S
Fe485       O496   1.938       .  S
Fe486       O489   2.011       .  S
Fe486       O493   2.097       .  S
Fe486       O497   2.042       .  S
Fe486       O502   2.093       .  S
Fe486       O496   1.929       .  S
Fe487       O505   2.103       .  S
Fe487       O492   2.067       .  S
Fe487       O499   2.057       .  S
Fe487       O488   2.106       .  S
Fe487       O496   1.934       .  S
O488        C495   1.281       .  A
O489        C503   1.261       .  A
O490        C495   1.274       .  A
O491        C494   1.276       .  A
O492        C504   1.271       .  A
O493        C506   1.277       .  A
C494        O499   1.268       .  A
C494       C1188   1.495       .  S
C495       C1788   1.489       .  S
O497        C500   1.261       .  A
O498        C500   1.278       .  A
C500        C849   1.478       .  S
O501        C506   1.269       .  A
O502        C504   1.272       .  A
C503        O505   1.279       .  A
C503       C1296   1.474       .  S
C504       C1404   1.506       .  S
C506        C897   1.482       .  S
Fe507       O523   2.049       .  S
Fe507       O513   2.112       .  S
Fe507       O520   2.123       .  S
Fe507       O512   2.048       .  S
Fe507       O518   1.926       .  S
Fe508       O511   2.005       .  S
Fe508       O515   2.089       .  S
Fe508       O519   2.038       .  S
Fe508       O524   2.109       .  S
Fe508       O518   1.924       .  S
Fe509       O527   2.108       .  S
Fe509       O514   2.051       .  S
Fe509       O521   2.053       .  S
Fe509       O510   2.102       .  S
Fe509       O518   1.931       .  S
O510        C517   1.280       .  A
O511        C525   1.256       .  A
O512        C517   1.273       .  A
O513        C516   1.278       .  A
O514        C526   1.267       .  A
O515        C528   1.272       .  A
C516        O521   1.269       .  A
C516        C840   1.495       .  S
C517       C1728   1.485       .  S
O519        C522   1.265       .  A
O520        C522   1.281       .  A
C522        C852   1.483       .  S
O523        C528   1.269       .  A
O524        C526   1.278       .  A
C525        O527   1.278       .  A
C525       C1497   1.462       .  S
C526       C1608   1.503       .  S
C528        C864   1.491       .  S
Fe529       O545   2.141       .  S
Fe529       O535   2.055   1_545  S
Fe529       O542   2.052       .  S
Fe529       O534   2.111   1_545  S
Fe529       O540   1.929       .  S
Fe530       O533   2.106       .  S
Fe530       O537   2.027       .  S
Fe530       O541   2.090       .  S
Fe530       O546   2.010       .  S
Fe530       O540   1.914       .  S
Fe531       O549   2.059       .  S
Fe531       O536   2.106       .  S
Fe531       O543   2.090   1_545  S
Fe531       O532   2.046       .  S
Fe531       O540   1.937       .  S
O532        C539   1.268   1_545  A
O533        C547   1.276       .  A
O534        C539   1.280       .  A
O535        C538   1.274       .  A
O536        C548   1.274       .  A
O537        C550   1.265       .  A
C538        O543   1.277       .  A
C538       C1464   1.478       .  S
C539       C1632   1.486       .  S
O541        C544   1.270       .  A
O542        C544   1.266       .  A
C544        C813   1.494       .  S
O545        C550   1.287       .  A
O546        C548   1.257       .  A
C547        O549   1.271       .  A
C547        C837   1.502       .  S
C548        C873   1.472       .  S
C550        C825   1.492       .  S
Fe551       O567   2.137       .  S
Fe551       O557   2.042       .  S
Fe551       O564   2.026       .  S
Fe551       O556   2.119       .  S
Fe551       O562   1.929       .  S
Fe552       O555   2.118       .  S
Fe552       O559   2.030       .  S
Fe552       O563   2.112       .  S
Fe552       O568   2.004       .  S
Fe552       O562   1.922       .  S
Fe553       O571   2.052       .  S
Fe553       O558   2.110       .  S
Fe553       O565   2.119       .  S
Fe553       O554   2.061       .  S
Fe553       O562   1.927       .  S
O554        C561   1.268       .  A
O555        C569   1.282       .  A
O556        C561   1.278       .  A
O557        C560   1.273       .  A
O558        C570   1.279       .  A
O559        C572   1.262       .  A
C560        O565   1.284       .  A
C560       C1416   1.484       .  S
C561        C792   1.493       .  S
O563        C566   1.280       .  A
O564        C566   1.263       .  A
C566        C804   1.489       .  S
O567        C572   1.282       .  A
O568        C570   1.256       .  A
C569        O571   1.269       .  A
C569        C948   1.506       .  S
C570       C1005   1.467       .  S
C572        C828   1.494       .  S
Fe573       O589   2.116       .  S
Fe573       O579   2.052       .  S
Fe573       O586   2.040   1_556  S
Fe573       O578   2.097       .  S
Fe573       O584   1.931       .  S
Fe574       O577   2.114       .  S
Fe574       O581   2.045       .  S
Fe574       O585   2.109       .  S
Fe574       O590   2.002       .  S
Fe574       O584   1.921       .  S
Fe575       O593   2.059       .  S
Fe575       O580   2.104       .  S
Fe575       O587   2.104       .  S
Fe575       O576   2.051       .  S
Fe575       O584   1.934       .  S
O576        C583   1.266   1_556  A
O577        C591   1.280       .  A
O578        C583   1.275   1_556  A
O579        C582   1.273       .  A
O580        C592   1.275       .  A
O581        C594   1.263       .  A
C582        O587   1.281       .  A
C582       C1572   1.494       .  S
C583        C888   1.483       .  S
O585        C588   1.277   1_556  A
O586        C588   1.269       .  A
C588        C816   1.496       .  S
O589        C594   1.278       .  A
O590        C592   1.258       .  A
C591        O593   1.271       .  A
C591       C1740   1.505       .  S
C592       C1644   1.465       .  S
C594        C780   1.480       .  S
Fe595       O611   2.131       .  S
Fe595       O601   2.042   1_545  S
Fe595       O608   2.042   1_556  S
Fe595       O600   2.108   1_546  S
Fe595       O606   1.922       .  S
Fe596       O599   2.116       .  S
Fe596       O603   2.036       .  S
Fe596       O607   2.091   1_556  S
Fe596       O612   2.007       .  S
Fe596       O606   1.919       .  S
Fe597       O615   2.048       .  S
Fe597       O602   2.124       .  S
Fe597       O609   2.112   1_545  S
Fe597       O598   2.058       .  S
Fe597       O606   1.935       .  S
O598        C605   1.270   1_546  A
O599        C613   1.278       .  A
O600        C605   1.278       .  A
O601        C604   1.272       .  A
O602        C614   1.279       .  A
O603        C616   1.265       .  A
C604        O609   1.283       .  A
C604       C1512   1.483       .  S
C605       C1017   1.498       .  S
O607        C610   1.274       .  A
O608        C610   1.264       .  A
C610        C801   1.481       .  S
O611        C616   1.283       .  A
O612        C614   1.252       .  A
C613        O615   1.269       .  A
C613        C765   1.488       .  S
C614        C756   1.467       .  S
C616        C777   1.490       .  S
Fe617       O633   2.057       .  S
Fe617       O623   2.109       .  S
Fe617       O630   2.129       .  S
Fe617       O622   2.049       .  S
Fe617       O628   1.924       .  S
Fe618       O621   2.013       .  S
Fe618       O625   2.089       .  S
Fe618       O629   2.031       .  S
Fe618       O634   2.106       .  S
Fe618       O628   1.920       .  S
Fe619       O637   2.105       .  S
Fe619       O624   2.060       .  S
Fe619       O631   2.057       .  S
Fe619       O620   2.106       .  S
Fe619       O628   1.935       .  S
O620        C627   1.281       .  A
O621        C635   1.258       .  A
O622        C627   1.273       .  A
O623        C626   1.277       .  A
O624        C636   1.271       .  A
O625        C638   1.271       .  A
C626        O631   1.269       .  A
C626        C768   1.504       .  S
C627        C933   1.484       .  S
O629        C632   1.266       .  A
O630        C632   1.284       .  A
C632        C741   1.490       .  S
O633        C638   1.268       .  A
O634        C636   1.277       .  A
C635        O637   1.275       .  A
C635       C1533   1.471       .  S
C636       C1428   1.493       .  S
C638        C729   1.488       .  S
Fe639       O655   2.043       .  S
Fe639       O645   2.121       .  S
Fe639       O652   2.135       .  S
Fe639       O644   2.049       .  S
Fe639       O650   1.926       .  S
Fe640       O643   2.008       .  S
Fe640       O647   2.095       .  S
Fe640       O651   2.027       .  S
Fe640       O656   2.111       .  S
Fe640       O650   1.915       .  S
Fe641       O659   2.114       .  S
Fe641       O646   2.057       .  S
Fe641       O653   2.050       .  S
Fe641       O642   2.100       .  S
Fe641       O650   1.937       .  S
O642        C649   1.279       .  A
O643        C657   1.255       .  A
O644        C649   1.270       .  A
O645        C648   1.282       .  A
O646        C658   1.272       .  A
O647        C660   1.273       .  A
C648        O653   1.270       .  A
C648       C1080   1.489       .  S
C649        C924   1.489       .  S
O651        C654   1.264       .  A
O652        C654   1.285       .  A
C654        C744   1.489       .  S
O655        C660   1.267       .  A
O656        C658   1.278       .  A
C657        O659   1.275       .  A
C657       C1320   1.476       .  S
C658       C1224   1.499       .  S
C660        C717   1.494       .  S
Fe661       O677   2.035   1_554  S
Fe661       O667   2.108   1_554  S
Fe661       O674   2.115       .  S
Fe661       O666   2.037       .  S
Fe661       O672   1.923       .  S
Fe662       O665   2.001   1_554  S
Fe662       O669   2.104   1_554  S
Fe662       O673   2.031       .  S
Fe662       O678   2.116       .  S
Fe662       O672   1.922       .  S
Fe663       O681   2.123       .  S
Fe663       O668   2.061       .  S
Fe663       O675   2.065   1_554  S
Fe663       O664   2.122       .  S
Fe663       O672   1.934       .  S
O664        C671   1.284       .  A
O665        C679   1.252   1_556  A
O666        C671   1.271       .  A
O667        C670   1.278       .  A
O668        C680   1.271       .  A
O669        C682   1.275       .  A
C670        O675   1.271       .  A
C670       C1548   1.503       .  S
C671        C996   1.493       .  S
O673        C676   1.262       .  A
O674        C676   1.279       .  A
C676        C705   1.485       .  S
O677        C682   1.268       .  A
O678        C680   1.280       .  A
C679        O681   1.281       .  A
C679        C753   1.466       .  S
C680        C789   1.503       .  S
C682        C732   1.494       .  S
Fe683       O699   2.044   1_554  S
Fe683       O689   2.108   1_554  S
Fe683       O696   2.117       .  S
Fe683       O688   2.047       .  S
Fe683       O694   1.937       .  S
Fe684       O687   2.009   1_554  S
Fe684       O691   2.097   1_554  S
Fe684       O695   2.040       .  S
Fe684       O700   2.099       .  S
Fe684       O694   1.921       .  S
Fe685       O703   2.097       .  S
Fe685       O690   2.066       .  S
Fe685       O697   2.057   1_554  S
Fe685       O686   2.098       .  S
Fe685       O694   1.927       .  S
O686        C693   1.279       .  A
O687        C701   1.259   1_556  A
O688        C693   1.273       .  A
O689        C692   1.276       .  A
O690        C702   1.272       .  A
O691        C704   1.275       .  A
C692        O697   1.268       .  A
C692       C1329   1.483       .  S
C693        C969   1.468       .  S
O695        C698   1.260       .  A
O696        C698   1.277       .  A
C698        C708   1.473       .  S
O699        C704   1.270       .  A
O700        C702   1.275       .  A
C701        O703   1.275       .  A
C701       C1068   1.468   1_554  S
C702       C1140   1.501       .  S
C704        C720   1.488       .  S
C705        C706   1.413       .  A
C705        C710   1.416       .  A
C706        C707   1.407       .  A
C706        H715   1.084       .  S
C707        C708   1.409       .  A
C707        S711   1.803       .  S
C708        C709   1.400       .  A
C709        C710   1.392       .  A
C709        H716   1.080   1_554  S
C710        S712   1.802   1_554  S
S711        H714   1.406       .  S
S712        H713   1.407       .  S
C717        C718   1.409       .  A
C717        C722   1.418       .  A
C718        C719   1.398       .  A
C718        H727   1.083       .  S
C719        C720   1.415       .  A
C719        S723   1.802       .  S
C720        C721   1.406       .  A
C721        C722   1.400       .  A
C721        H728   1.084       .  S
C722        S724   1.802       .  S
S723        H726   1.408       .  S
S724        H725   1.408       .  S
C729        C730   1.407       .  A
C729        C734   1.416       .  A
C730        C731   1.402       .  A
C730        H739   1.084       .  S
C731        C732   1.417       .  A
C731        S735   1.801       .  S
C732        C733   1.408       .  A
C733        C734   1.399       .  A
C733        H740   1.082       .  S
C734        S736   1.812       .  S
S735        H738   1.408       .  S
S736        H737   1.406       .  S
C741        C742   1.414       .  A
C741        C746   1.410       .  A
C742        C743   1.404       .  A
C742        H751   1.084       .  S
C743        C744   1.409       .  A
C743        S747   1.802       .  S
C744        C745   1.412       .  A
C745        C746   1.400       .  A
C745        H752   1.084       .  S
C746        S748   1.803       .  S
S747        H750   1.407       .  S
S748        H749   1.407       .  S
C753        C754   1.391   1_554  A
C753        C758   1.424       .  A
C754        C755   1.395       .  A
C754        H763   1.083       .  S
C755        C756   1.423       .  A
C755        S759   1.812       .  S
C756        C757   1.392       .  A
C757        C758   1.398   1_556  A
C757        H764   1.083   1_556  S
C758        S760   1.813       .  S
S759        H762   1.406       .  S
S760        H761   1.406       .  S
C765        C766   1.405       .  A
C765        C770   1.411       .  A
C766        C767   1.401       .  A
C766        H775   1.084       .  S
C767        C768   1.419       .  A
C767        S771   1.802       .  S
C768        C769   1.415       .  A
C769        C770   1.406       .  A
C769        H776   1.083       .  S
C770        S772   1.803       .  S
S771        H774   1.408       .  S
S772        H773   1.407       .  S
C777        C778   1.411       .  A
C777        C782   1.416       .  A
C778        C779   1.409       .  A
C778        H787   1.084       .  S
C779        C780   1.411       .  A
C779        S783   1.802       .  S
C780        C781   1.402       .  A
C781        C782   1.397       .  A
C781        H788   1.083       .  S
C782        S784   1.800   1_556  S
S783        H786   1.406       .  S
S784        H785   1.407       .  S
C789        C790   1.410       .  A
C789        C794   1.420       .  A
C790        C791   1.406       .  A
C790        H799   1.083       .  S
C791        C792   1.416       .  A
C791        S795   1.804       .  S
C792        C793   1.403       .  A
C793        C794   1.406       .  A
C793        H800   1.083       .  S
C794        S796   1.801       .  S
S795        H798   1.407       .  S
S796        H797   1.408       .  S
C801        C802   1.401       .  A
C801        C806   1.416       .  A
C802        C803   1.395       .  A
C802        H811   1.084       .  S
C803        C804   1.423       .  A
C803        S807   1.805       .  S
C804        C805   1.406       .  A
C805        C806   1.400       .  A
C805        H812   1.083       .  S
C806        S808   1.803       .  S
S807        H810   1.407       .  S
S808        H809   1.406       .  S
C813        C814   1.410       .  A
C813        C818   1.418       .  A
C814        C815   1.403       .  A
C814        H823   1.084       .  S
C815        C816   1.417       .  A
C815        S819   1.801       .  S
C816        C817   1.408       .  A
C817        C818   1.398       .  A
C817        H824   1.084       .  S
C818        S820   1.802       .  S
S819        H822   1.408       .  S
S820        H821   1.408       .  S
C825        C826   1.413       .  A
C825        C830   1.409       .  A
C826        C827   1.403       .  A
C826        H835   1.084       .  S
C827        C828   1.410       .  A
C827        S831   1.802       .  S
C828        C829   1.414       .  A
C829        C830   1.405       .  A
C829        H836   1.084       .  S
C830        S832   1.802       .  S
S831        H834   1.407       .  S
S832        H833   1.407       .  S
C837        C838   1.412   1_455  A
C837        C842   1.420       .  A
C838        C839   1.409       .  A
C838        H847   1.082       .  S
C839        C840   1.415       .  A
C839        S843   1.808       .  S
C840        C841   1.405   1_655  A
C841        C842   1.402       .  A
C841        H848   1.084       .  S
C842        S844   1.803       .  S
S843        H846   1.407       .  S
S844        H845   1.408       .  S
C849        C850   1.401       .  A
C849        C854   1.414       .  A
C850        C851   1.392       .  A
C850        H859   1.083       .  S
C851        C852   1.414       .  A
C851        S855   1.799       .  S
C852        C853   1.409       .  A
C853        C854   1.409       .  A
C853        H860   1.084       .  S
C854        S856   1.803       .  S
S855        H858   1.406       .  S
S856        H857   1.406       .  S
C861        C862   1.407       .  A
C861        C866   1.418       .  A
C862        C863   1.400       .  A
C862        H871   1.083       .  S
C863        C864   1.418       .  A
C863        S867   1.802       .  S
C864        C865   1.406       .  A
C865        C866   1.397       .  A
C865        H872   1.084       .  S
C866        S868   1.802       .  S
S867        H870   1.407       .  S
S868        H869   1.408       .  S
C873        C874   1.408       .  A
C873        C878   1.412   1_455  A
C874        C875   1.392       .  A
C874        H883   1.085       .  S
C875        C876   1.411   1_455  A
C875        S879   1.800       .  S
C876        C877   1.409       .  A
C877        C878   1.394       .  A
C877        H884   1.085       .  S
C878        S880   1.801       .  S
S879        H882   1.407       .  S
S880        H881   1.407       .  S
C885        C886   1.410       .  A
C885        C890   1.423       .  A
C886        C887   1.403       .  A
C886        H895   1.082       .  S
C887        C888   1.412   1_655  A
C887        S891   1.810       .  S
C888        C889   1.401       .  A
C889        C890   1.403   1_455  A
C889        H896   1.083       .  S
C890        S892   1.811       .  S
S891        H894   1.407       .  S
S892        H893   1.407   1_655  S
C897        C898   1.400       .  A
C897        C902   1.412       .  A
C898        C899   1.401       .  A
C898        H907   1.083       .  S
C899        C900   1.425       .  A
C899        S903   1.811       .  S
C900        C901   1.410       .  A
C901        C902   1.402       .  A
C901        H908   1.083       .  S
C902        S904   1.803       .  S
S903        H906   1.407       .  S
S904        H905   1.408       .  S
C909        C910   1.415       .  A
C909        C914   1.413       .  A
C910        C911   1.400       .  A
C910        H919   1.083       .  S
C911        C912   1.405       .  A
C911        S915   1.802       .  S
C912        C913   1.410       .  A
C913        C914   1.400       .  A
C913        H920   1.084       .  S
C914        S916   1.803       .  S
S915        H918   1.406       .  S
S916        H917   1.408       .  S
C921        C922   1.403       .  A
C921        C926   1.416       .  A
C922        C923   1.398       .  A
C922        H931   1.084       .  S
C923        C924   1.419       .  A
C923        S927   1.803       .  S
C924        C925   1.406       .  A
C925        C926   1.399       .  A
C925        H932   1.084       .  S
C926        S928   1.802       .  S
S927        H930   1.408       .  S
S928        H929   1.405       .  S
C933        C934   1.402       .  A
C933        C938   1.415       .  A
C934        C935   1.399       .  A
C934        H943   1.084       .  S
C935        C936   1.420       .  A
C935        S939   1.803       .  S
C936        C937   1.407       .  A
C937        C938   1.406       .  A
C937        H944   1.082       .  S
C938        S940   1.809       .  S
S939        H942   1.408       .  S
S940        H941   1.407       .  S
C945        C946   1.403       .  A
C945        C950   1.417       .  A
C946        C947   1.408       .  A
C946        H955   1.084       .  S
C947        C948   1.425       .  A
C947        S951   1.803       .  S
C948        C949   1.408       .  A
C949        C950   1.403       .  A
C949        H956   1.084       .  S
C950        S952   1.803   1_545  S
S951        H954   1.408       .  S
S952        H953   1.407       .  S
C957        C958   1.413       .  A
C957        C962   1.409       .  A
C958        C959   1.404       .  A
C958        H967   1.084       .  S
C959        C960   1.411       .  A
C959        S963   1.803       .  S
C960        C961   1.415       .  A
C961        C962   1.405       .  A
C961        H968   1.084       .  S
C962        S964   1.802       .  S
S963        H966   1.408       .  S
S964        H965   1.407       .  S
C969        C970   1.404       .  A
C969        C974   1.408       .  A
C970        C971   1.404       .  A
C970        H979   1.083       .  S
C971        C972   1.411       .  A
C971        S975   1.807       .  S
C972        C973   1.406       .  A
C973        C974   1.396       .  A
C973        H980   1.084       .  S
C974        S976   1.805       .  S
S975        H978   1.407       .  S
S976        H977   1.406       .  S
C981        C982   1.403       .  A
C981        C986   1.413       .  A
C982        C983   1.403       .  A
C982        H991   1.082       .  S
C983        C984   1.423       .  A
C983        S987   1.812       .  S
C984        C985   1.408       .  A
C985        C986   1.398       .  A
C985        H992   1.083       .  S
C986        S988   1.804       .  S
S987        H990   1.407       .  S
S988        H989   1.408       .  S
C993        C994   1.406       .  A
C993        C998   1.411       .  A
C994        C995   1.403       .  A
C994       H1003   1.084       .  S
C995        C996   1.416       .  A
C995        S999   1.800       .  S
C996        C997   1.411       .  A
C997        C998   1.397       .  A
C997       H1004   1.084       .  S
C998       S1000   1.805       .  S
S999       H1002   1.405       .  S
S1000      H1001   1.407       .  S
C1005      C1006   1.402       .  A
C1005      C1010   1.417       .  A
C1006      C1007   1.399   1_545  A
C1006      H1015   1.083       .  S
C1007      C1008   1.415       .  A
C1007      S1011   1.811       .  S
C1008      C1009   1.401       .  A
C1009      C1010   1.393   1_565  A
C1009      H1016   1.085       .  S
C1010      S1012   1.807       .  S
S1011      H1014   1.407       .  S
S1012      H1013   1.407       .  S
C1017      C1018   1.409       .  A
C1017      C1022   1.416       .  A
C1018      C1019   1.405       .  A
C1018      H1027   1.084   1_565  S
C1019      C1020   1.419       .  A
C1019      S1023   1.802       .  S
C1020      C1021   1.411       .  A
C1021      C1022   1.403       .  A
C1021      H1028   1.083       .  S
C1022      S1024   1.803       .  S
S1023      H1026   1.408       .  S
S1024      H1025   1.408   1_554  S
C1029      C1030   1.405       .  A
C1029      C1034   1.418       .  A
C1030      C1031   1.404       .  A
C1030      H1039   1.082       .  S
C1031      C1032   1.420       .  A
C1031      S1035   1.810       .  S
C1032      C1033   1.406       .  A
C1033      C1034   1.399       .  A
C1033      H1040   1.084       .  S
C1034      S1036   1.803       .  S
S1035      H1038   1.407       .  S
S1036      H1037   1.408       .  S
C1041      C1042   1.411       .  A
C1041      C1046   1.408       .  A
C1042      C1043   1.400       .  A
C1042      H1051   1.084       .  S
C1043      C1044   1.411       .  A
C1043      S1047   1.802       .  S
C1044      C1045   1.414       .  A
C1045      C1046   1.401       .  A
C1045      H1052   1.084       .  S
C1046      S1048   1.802       .  S
S1047      H1050   1.407       .  S
S1048      H1049   1.407       .  S
C1053      C1054   1.407       .  A
C1053      C1058   1.412       .  A
C1054      C1055   1.409       .  A
C1054      H1063   1.083       .  S
C1055      C1056   1.422       .  A
C1055      S1059   1.810       .  S
C1056      C1057   1.412       .  A
C1057      C1058   1.403       .  A
C1057      H1064   1.083       .  S
C1058      S1060   1.803       .  S
S1059      H1062   1.406       .  S
S1060      H1061   1.407   1_554  S
C1065      C1066   1.408   1_556  A
C1065      C1070   1.412       .  A
C1066      C1067   1.391       .  A
C1066      H1075   1.085       .  S
C1067      C1068   1.410   1_554  A
C1067      S1071   1.801       .  S
C1068      C1069   1.408       .  A
C1069      C1070   1.394       .  A
C1069      H1076   1.084       .  S
C1070      S1072   1.801       .  S
S1071      H1074   1.407       .  S
S1072      H1073   1.407       .  S
C1077      C1078   1.411       .  A
C1077      C1082   1.422       .  A
C1078      C1079   1.402       .  A
C1078      H1087   1.083       .  S
C1079      C1080   1.415       .  A
C1079      S1083   1.805       .  S
C1080      C1081   1.404       .  A
C1081      C1082   1.406       .  A
C1081      H1088   1.084       .  S
C1082      S1084   1.801       .  S
S1083      H1086   1.407       .  S
S1084      H1085   1.408       .  S
C1089      C1090   1.415       .  A
C1089      C1094   1.411       .  A
C1090      C1091   1.401       .  A
C1090      H1099   1.083       .  S
C1091      C1092   1.404       .  A
C1091      S1095   1.803       .  S
C1092      C1093   1.408       .  A
C1093      C1094   1.397       .  A
C1093      H1100   1.084       .  S
C1094      S1096   1.803       .  S
S1095      H1098   1.407       .  S
S1096      H1097   1.406       .  S
C1101      C1102   1.402       .  A
C1101      C1106   1.413       .  A
C1102      C1103   1.404       .  A
C1102      H1111   1.084       .  S
C1103      C1104   1.420       .  A
C1103      S1107   1.802       .  S
C1104      C1105   1.410       .  A
C1105      C1106   1.404       .  A
C1105      H1112   1.084       .  S
C1106      S1108   1.805       .  S
S1107      H1110   1.408       .  S
S1108      H1109   1.406       .  S
C1113      C1114   1.402       .  A
C1113      C1118   1.411       .  A
C1114      C1115   1.396       .  A
C1114      H1123   1.083       .  S
C1115      C1116   1.412       .  A
C1115      S1119   1.810       .  S
C1116      C1117   1.403       .  A
C1117      C1118   1.397       .  A
C1117      H1124   1.083       .  S
C1118      S1120   1.809       .  S
S1119      H1122   1.407       .  S
S1120      H1121   1.407       .  S
C1125      C1126   1.410       .  A
C1125      C1130   1.416       .  A
C1126      C1127   1.407       .  A
C1126      H1135   1.081       .  S
C1127      C1128   1.418       .  A
C1127      S1131   1.810       .  S
C1128      C1129   1.413       .  A
C1129      C1130   1.407       .  A
C1129      H1136   1.083       .  S
C1130      S1132   1.802       .  S
S1131      H1134   1.406       .  S
S1132      H1133   1.408       .  S
C1137      C1138   1.412       .  A
C1137      C1142   1.422       .  A
C1138      C1139   1.405       .  A
C1138      H1147   1.083       .  S
C1139      C1140   1.416       .  A
C1139      S1143   1.803       .  S
C1140      C1141   1.407       .  A
C1141      C1142   1.408       .  A
C1141      H1148   1.082       .  S
C1142      S1144   1.809       .  S
S1143      H1146   1.408       .  S
S1144      H1145   1.407       .  S
C1149      C1150   1.406       .  A
C1149      C1154   1.422       .  A
C1150      C1151   1.398       .  A
C1150      H1159   1.083       .  S
C1151      C1152   1.414       .  A
C1151      S1155   1.803       .  S
C1152      C1153   1.402       .  A
C1153      C1154   1.401       .  A
C1153      H1160   1.082       .  S
C1154      S1156   1.812       .  S
S1155      H1158   1.408       .  S
S1156      H1157   1.406       .  S
C1161      C1162   1.406       .  A
C1161      C1166   1.415       .  A
C1162      C1163   1.393       .  A
C1162      H1171   1.083       .  S
C1163      C1164   1.413       .  A
C1163      S1167   1.801       .  S
C1164      C1165   1.405       .  A
C1165      C1166   1.398       .  A
C1165      H1172   1.084       .  S
C1166      S1168   1.803       .  S
S1167      H1170   1.408       .  S
S1168      H1169   1.409       .  S
C1173      C1174   1.413       .  A
C1173      C1178   1.407       .  A
C1174      C1175   1.402       .  A
C1174      H1183   1.084       .  S
C1175      C1176   1.411       .  A
C1175      S1179   1.803       .  S
C1176      C1177   1.413       .  A
C1177      C1178   1.399       .  A
C1177      H1184   1.083       .  S
C1178      S1180   1.803       .  S
S1179      H1182   1.407       .  S
S1180      H1181   1.407       .  S
C1185      C1186   1.409       .  A
C1185      C1190   1.418       .  A
C1186      C1187   1.401       .  A
C1186      H1195   1.083       .  S
C1187      C1188   1.416       .  A
C1187      S1191   1.803       .  S
C1188      C1189   1.408       .  A
C1189      C1190   1.405       .  A
C1189      H1196   1.084       .  S
C1190      S1192   1.802       .  S
S1191      H1194   1.408       .  S
S1192      H1193   1.408       .  S
C1197      C1198   1.412       .  A
C1197      C1202   1.411       .  A
C1198      C1199   1.392       .  A
C1198      H1207   1.084       .  S
C1199      C1200   1.411       .  A
C1199      S1203   1.803       .  S
C1200      C1201   1.411       .  A
C1201      C1202   1.394       .  A
C1201      H1208   1.084       .  S
C1202      S1204   1.802       .  S
S1203      H1206   1.408       .  S
S1204      H1205   1.408       .  S
C1209      C1210   1.404       .  A
C1209      C1214   1.418       .  A
C1210      C1211   1.400       .  A
C1210      H1219   1.083       .  S
C1211      C1212   1.414       .  A
C1211      S1215   1.810       .  S
C1212      C1213   1.400       .  A
C1213      C1214   1.395       .  A
C1213      H1220   1.085       .  S
C1214      S1216   1.805       .  S
S1215      H1218   1.406       .  S
S1216      H1217   1.405       .  S
C1221      C1222   1.410       .  A
C1221      C1226   1.418       .  A
C1222      C1223   1.403       .  A
C1222      H1231   1.084       .  S
C1223      C1224   1.417       .  A
C1223      S1227   1.803       .  S
C1224      C1225   1.409       .  A
C1225      C1226   1.404       .  A
C1225      H1232   1.084       .  S
C1226      S1228   1.800       .  S
S1227      H1230   1.408       .  S
S1228      H1229   1.408       .  S
C1233      C1234   1.405       .  A
C1233      C1238   1.413       .  A
C1234      C1235   1.398       .  A
C1234      H1243   1.084   1_545  S
C1235      C1236   1.419       .  A
C1235      S1239   1.804       .  S
C1236      C1237   1.410       .  A
C1237      C1238   1.403       .  A
C1237      H1244   1.083       .  S
C1238      S1240   1.803       .  S
S1239      H1242   1.408       .  S
S1240      H1241   1.407       .  S
C1245      C1246   1.409       .  A
C1245      C1250   1.413       .  A
C1246      C1247   1.394   1_545  A
C1246      H1255   1.083       .  S
C1247      C1248   1.408       .  A
C1247      S1251   1.808       .  S
C1248      C1249   1.409       .  A
C1249      C1250   1.396   1_565  A
C1249      H1256   1.085       .  S
C1250      S1252   1.800       .  S
S1251      H1254   1.407       .  S
S1252      H1253   1.407       .  S
C1257      C1258   1.402       .  A
C1257      C1262   1.415       .  A
C1258      C1259   1.401       .  A
C1258      H1267   1.084       .  S
C1259      C1260   1.421       .  A
C1259      S1263   1.804       .  S
C1260      C1261   1.406       .  A
C1261      C1262   1.406       .  A
C1261      H1268   1.082       .  S
C1262      S1264   1.809       .  S
S1263      H1266   1.407       .  S
S1264      H1265   1.406       .  S
C1269      C1270   1.414       .  A
C1269      C1274   1.411       .  A
C1270      C1271   1.402       .  A
C1270      H1279   1.084       .  S
C1271      C1272   1.407       .  A
C1271      S1275   1.802       .  S
C1272      C1273   1.412       .  A
C1273      C1274   1.401       .  A
C1273      H1280   1.084       .  S
C1274      S1276   1.803       .  S
S1275      H1278   1.407       .  S
S1276      H1277   1.407   1_545  S
C1281      C1282   1.402       .  A
C1281      C1286   1.410       .  A
C1282      C1283   1.410       .  A
C1282      H1291   1.082       .  S
C1283      C1284   1.423       .  A
C1283      S1287   1.809       .  S
C1284      C1285   1.411       .  A
C1285      C1286   1.404       .  A
C1285      H1292   1.081       .  S
C1286      S1288   1.810       .  S
S1287      H1290   1.407       .  S
S1288      H1289   1.407       .  S
C1293      C1294   1.409       .  A
C1293      C1298   1.411       .  A
C1294      C1295   1.395       .  A
C1294      H1303   1.082       .  S
C1295      C1296   1.411       .  A
C1295      S1299   1.811       .  S
C1296      C1297   1.410       .  A
C1297      C1298   1.399       .  A
C1297      H1304   1.084       .  S
C1298      S1300   1.807       .  S
S1299      H1302   1.406       .  S
S1300      H1301   1.406       .  S
C1305      C1306   1.404       .  A
C1305      C1310   1.423       .  A
C1306      C1307   1.398       .  A
C1306      H1315   1.084       .  S
C1307      C1308   1.416       .  A
C1307      S1311   1.801       .  S
C1308      C1309   1.402       .  A
C1309      C1310   1.399       .  A
C1309      H1316   1.084       .  S
C1310      S1312   1.804       .  S
S1311      H1314   1.404       .  S
S1312      H1313   1.408       .  S
C1317      C1318   1.409       .  A
C1317      C1322   1.409       .  A
C1318      C1319   1.399       .  A
C1318      H1327   1.083       .  S
C1319      C1320   1.412       .  A
C1319      S1323   1.807       .  S
C1320      C1321   1.409       .  A
C1321      C1322   1.391       .  A
C1321      H1328   1.084       .  S
C1322      S1324   1.801       .  S
S1323      H1326   1.407       .  S
S1324      H1325   1.407       .  S
C1329      C1330   1.403       .  A
C1329      C1334   1.412       .  A
C1330      C1331   1.405       .  A
C1330      H1339   1.084       .  S
C1331      C1332   1.422       .  A
C1331      S1335   1.803       .  S
C1332      C1333   1.410       .  A
C1333      C1334   1.401       .  A
C1333      H1340   1.084       .  S
C1334      S1336   1.805       .  S
S1335      H1338   1.407       .  S
S1336      H1337   1.407       .  S
C1341      C1342   1.403       .  A
C1341      C1346   1.414       .  A
C1342      C1343   1.401       .  A
C1342      H1351   1.082       .  S
C1343      C1344   1.422       .  A
C1343      S1347   1.813       .  S
C1344      C1345   1.408       .  A
C1345      C1346   1.398       .  A
C1345      H1352   1.083       .  S
C1346      S1348   1.803       .  S
S1347      H1350   1.406       .  S
S1348      H1349   1.408       .  S
C1353      C1354   1.408       .  A
C1353      C1358   1.412       .  A
C1354      C1355   1.406       .  A
C1354      H1363   1.082       .  S
C1355      C1356   1.419       .  A
C1355      S1359   1.810       .  S
C1356      C1357   1.412       .  A
C1357      C1358   1.401       .  A
C1357      H1364   1.083       .  S
C1358      S1360   1.803       .  S
S1359      H1362   1.406       .  S
S1360      H1361   1.408       .  S
C1365      C1366   1.406       .  A
C1365      C1370   1.420       .  A
C1366      C1367   1.394       .  A
C1366      H1375   1.084       .  S
C1367      C1368   1.413       .  A
C1367      S1371   1.804       .  S
C1368      C1369   1.402       .  A
C1369      C1370   1.403       .  A
C1369      H1376   1.083       .  S
C1370      S1372   1.811       .  S
S1371      H1374   1.407       .  S
S1372      H1373   1.407       .  S
C1377      C1378   1.410       .  A
C1377      C1382   1.420       .  A
C1378      C1379   1.406       .  A
C1378      H1387   1.082       .  S
C1379      C1380   1.416       .  A
C1379      S1383   1.810       .  S
C1380      C1381   1.406       .  A
C1381      C1382   1.403       .  A
C1381      H1388   1.082       .  S
C1382      S1384   1.812       .  S
S1383      H1386   1.406       .  S
S1384      H1385   1.406       .  S
C1389      C1390   1.413       .  A
C1389      C1394   1.410       .  A
C1390      C1391   1.402       .  A
C1390      H1399   1.084       .  S
C1391      C1392   1.409       .  A
C1391      S1395   1.802       .  S
C1392      C1393   1.413       .  A
C1393      C1394   1.402       .  A
C1393      H1400   1.084       .  S
C1394      S1396   1.802       .  S
S1395      H1398   1.407       .  S
S1396      H1397   1.407       .  S
C1401      C1402   1.404       .  A
C1401      C1406   1.414       .  A
C1402      C1403   1.402       .  A
C1402      H1411   1.084       .  S
C1403      C1404   1.424       .  A
C1403      S1407   1.802       .  S
C1404      C1405   1.412       .  A
C1405      C1406   1.407       .  A
C1405      H1412   1.083       .  S
C1406      S1408   1.799       .  S
S1407      H1410   1.408       .  S
S1408      H1409   1.407       .  S
C1413      C1414   1.407       .  A
C1413      C1418   1.418       .  A
C1414      C1415   1.407       .  A
C1414      H1423   1.083       .  S
C1415      C1416   1.415       .  A
C1415      S1419   1.807       .  S
C1416      C1417   1.402       .  A
C1417      C1418   1.398       .  A
C1417      H1424   1.084       .  S
C1418      S1420   1.803       .  S
S1419      H1422   1.407       .  S
S1420      H1421   1.407       .  S
C1425      C1426   1.413       .  A
C1425      C1430   1.420       .  A
C1426      C1427   1.405       .  A
C1426      H1435   1.083       .  S
C1427      C1428   1.413       .  A
C1427      S1431   1.803       .  S
C1428      C1429   1.407       .  A
C1429      C1430   1.404       .  A
C1429      H1436   1.084       .  S
C1430      S1432   1.801       .  S
S1431      H1434   1.407       .  S
S1432      H1433   1.409       .  S
C1437      C1438   1.408       .  A
C1437      C1442   1.415       .  A
C1438      C1439   1.403       .  A
C1438      H1447   1.084       .  S
C1439      C1440   1.419       .  A
C1439      S1443   1.801       .  S
C1440      C1441   1.412       .  A
C1441      C1442   1.402       .  A
C1441      H1448   1.083       .  S
C1442      S1444   1.803       .  S
S1443      H1446   1.408       .  S
S1444      H1445   1.408       .  S
C1449      C1450   1.401       .  A
C1449      C1454   1.414       .  A
C1450      C1451   1.393       .  A
C1450      H1459   1.084       .  S
C1451      C1452   1.412       .  A
C1451      S1455   1.804       .  S
C1452      C1453   1.402       .  A
C1453      C1454   1.394       .  A
C1453      H1460   1.084       .  S
C1454      S1456   1.806       .  S
S1455      H1458   1.407       .  S
S1456      H1457   1.405       .  S
C1461      C1462   1.403       .  A
C1461      C1466   1.411       .  A
C1462      C1463   1.399       .  A
C1462      H1471   1.084       .  S
C1463      C1464   1.414       .  A
C1463      S1467   1.804       .  S
C1464      C1465   1.406       .  A
C1465      C1466   1.398       .  A
C1465      H1472   1.084       .  S
C1466      S1468   1.805       .  S
S1467      H1470   1.407       .  S
S1468      H1469   1.407       .  S
C1473      C1474   1.413       .  A
C1473      C1478   1.411       .  A
C1474      C1475   1.403       .  A
C1474      H1483   1.084       .  S
C1475      C1476   1.410       .  A
C1475      S1479   1.802       .  S
C1476      C1477   1.412       .  A
C1477      C1478   1.402       .  A
C1477      H1484   1.084       .  S
C1478      S1480   1.803       .  S
S1479      H1482   1.407       .  S
S1480      H1481   1.407       .  S
C1485      C1486   1.410       .  A
C1485      C1490   1.422       .  A
C1486      C1487   1.405   1_455  A
C1486      H1495   1.082       .  S
C1487      C1488   1.412       .  A
C1487      S1491   1.810       .  S
C1488      C1489   1.401       .  A
C1489      C1490   1.408   1_655  A
C1489      H1496   1.083       .  S
C1490      S1492   1.809       .  S
S1491      H1494   1.407   1_655  S
S1492      H1493   1.407   1_455  S
C1497      C1498   1.402       .  A
C1497      C1502   1.415       .  A
C1498      C1499   1.398   1_655  A
C1498      H1507   1.083   1_655  S
C1499      C1500   1.414   1_455  A
C1499      S1503   1.810       .  S
C1500      C1501   1.399       .  A
C1501      C1502   1.391       .  A
C1501      H1508   1.085       .  S
C1502      S1504   1.805       .  S
S1503      H1506   1.407       .  S
S1504      H1505   1.407       .  S
C1509      C1510   1.405       .  A
C1509      C1514   1.407       .  A
C1510      C1511   1.401       .  A
C1510      H1519   1.084       .  S
C1511      C1512   1.413       .  A
C1511      S1515   1.803       .  S
C1512      C1513   1.409       .  A
C1513      C1514   1.402       .  A
C1513      H1520   1.083       .  S
C1514      S1516   1.807       .  S
S1515      H1518   1.407       .  S
S1516      H1517   1.407       .  S
C1521      C1522   1.408       .  A
C1521      C1526   1.418       .  A
C1522      C1523   1.399       .  A
C1522      H1531   1.083       .  S
C1523      C1524   1.417       .  A
C1523      S1527   1.802       .  S
C1524      C1525   1.406       .  A
C1525      C1526   1.401       .  A
C1525      H1532   1.084       .  S
C1526      S1528   1.802       .  S
S1527      H1530   1.408       .  S
S1528      H1529   1.409       .  S
C1533      C1534   1.408       .  A
C1533      C1538   1.409       .  A
C1534      C1535   1.394       .  A
C1534      H1543   1.084       .  S
C1535      C1536   1.413       .  A
C1535      S1539   1.801       .  S
C1536      C1537   1.408       .  A
C1537      C1538   1.390       .  A
C1537      H1544   1.084       .  S
C1538      S1540   1.798       .  S
S1539      H1542   1.407       .  S
S1540      H1541   1.407       .  S
C1545      C1546   1.409       .  A
C1545      C1550   1.418       .  A
C1546      C1547   1.403       .  A
C1546      H1555   1.083       .  S
C1547      C1548   1.419       .  A
C1547      S1551   1.802       .  S
C1548      C1549   1.410       .  A
C1549      C1550   1.408       .  A
C1549      H1556   1.084       .  S
C1550      S1552   1.802       .  S
S1551      H1554   1.408   1_556  S
S1552      H1553   1.408       .  S
C1557      C1558   1.402       .  A
C1557      C1562   1.416       .  A
C1558      C1559   1.410       .  A
C1558      H1567   1.083       .  S
C1559      C1560   1.426       .  A
C1559      S1563   1.810       .  S
C1560      C1561   1.409       .  A
C1561      C1562   1.402       .  A
C1561      H1568   1.083       .  S
C1562      S1564   1.805       .  S
S1563      H1566   1.407       .  S
S1564      H1565   1.407       .  S
C1569      C1570   1.404       .  A
C1569      C1574   1.415       .  A
C1570      C1571   1.398       .  A
C1570      H1579   1.084       .  S
C1571      C1572   1.420       .  A
C1571      S1575   1.802       .  S
C1572      C1573   1.409       .  A
C1573      C1574   1.401       .  A
C1573      H1580   1.083       .  S
C1574      S1576   1.802   1_455  S
S1575      H1578   1.408       .  S
S1576      H1577   1.407   1_655  S
C1581      C1582   1.403       .  A
C1581      C1586   1.418       .  A
C1582      C1583   1.400       .  A
C1582      H1591   1.082       .  S
C1583      C1584   1.420       .  A
C1583      S1587   1.812       .  S
C1584      C1585   1.404       .  A
C1585      C1586   1.397       .  A
C1585      H1592   1.084       .  S
C1586      S1588   1.804       .  S
S1587      H1590   1.406       .  S
S1588      H1589   1.408       .  S
C1593      C1594   1.411       .  A
C1593      C1598   1.407       .  A
C1594      C1595   1.405       .  A
C1594      H1603   1.082       .  S
C1595      C1596   1.413       .  A
C1595      S1599   1.809       .  S
C1596      C1597   1.416       .  A
C1597      C1598   1.403       .  A
C1597      H1604   1.083       .  S
C1598      S1600   1.803       .  S
S1599      H1602   1.407       .  S
S1600      H1601   1.407       .  S
C1605      C1606   1.399       .  A
C1605      C1610   1.417   1_455  A
C1606      C1607   1.398   1_455  A
C1606      H1615   1.084       .  S
C1607      C1608   1.423       .  A
C1607      S1611   1.795   1_655  S
C1608      C1609   1.410       .  A
C1609      C1610   1.405       .  A
C1609      H1616   1.083       .  S
C1610      S1612   1.803       .  S
S1611      H1614   1.406   1_455  S
S1612      H1613   1.408   1_655  S
C1617      C1618   1.408       .  A
C1617      C1622   1.417       .  A
C1618      C1619   1.399       .  A
C1618      H1627   1.084       .  S
C1619      C1620   1.413       .  A
C1619      S1623   1.803       .  S
C1620      C1621   1.404       .  A
C1621      C1622   1.400       .  A
C1621      H1628   1.084       .  S
C1622      S1624   1.800       .  S
S1623      H1626   1.407       .  S
S1624      H1625   1.406       .  S
C1629      C1630   1.410       .  A
C1629      C1634   1.424       .  A
C1630      C1631   1.400       .  A
C1630      H1639   1.083       .  S
C1631      C1632   1.414   1_655  A
C1631      S1635   1.805   1_565  S
C1632      C1633   1.401       .  A
C1633      C1634   1.407   1_455  A
C1633      H1640   1.082       .  S
C1634      S1636   1.808   1_655  S
S1635      H1638   1.408   1_655  S
S1636      H1637   1.407       .  S
C1641      C1642   1.406       .  A
C1641      C1646   1.410   1_656  A
C1642      C1643   1.392   1_565  A
C1642      H1651   1.085       .  S
C1643      C1644   1.409   1_655  A
C1643      S1647   1.799       .  S
C1644      C1645   1.406   1_556  A
C1645      C1646   1.392   1_545  A
C1645      H1652   1.085       .  S
C1646      S1648   1.799       .  S
S1647      H1650   1.406       .  S
S1648      H1649   1.406       .  S
C1653      C1654   1.402       .  A
C1653      C1658   1.419   1_655  A
C1654      C1655   1.404       .  A
C1654      H1663   1.084       .  S
C1655      C1656   1.425   1_655  A
C1655      S1659   1.802       .  S
C1656      C1657   1.409       .  A
C1657      C1658   1.406       .  A
C1657      H1664   1.083       .  S
C1658      S1660   1.804       .  S
S1659      H1662   1.408   1_655  S
S1660      H1661   1.407   1_455  S
C1665      C1666   1.405       .  A
C1665      C1670   1.412       .  A
C1666      C1667   1.402       .  A
C1666      H1675   1.085       .  S
C1667      C1668   1.416       .  A
C1667      S1671   1.803       .  S
C1668      C1669   1.407       .  A
C1669      C1670   1.400       .  A
C1669      H1676   1.084       .  S
C1670      S1672   1.804       .  S
S1671      H1674   1.407       .  S
S1672      H1673   1.407       .  S
C1677      C1678   1.411       .  A
C1677      C1682   1.417       .  A
C1678      C1679   1.405       .  A
C1678      H1687   1.084   1_545  S
C1679      C1680   1.417       .  A
C1679      S1683   1.803       .  S
C1680      C1681   1.409       .  A
C1681      C1682   1.403       .  A
C1681      H1688   1.084       .  S
C1682      S1684   1.802       .  S
S1683      H1686   1.408       .  S
S1684      H1685   1.408   1_556  S
C1689      C1690   1.414       .  A
C1689      C1694   1.409       .  A
C1690      C1691   1.403       .  A
C1690      H1699   1.083       .  S
C1691      C1692   1.409       .  A
C1691      S1695   1.802       .  S
C1692      C1693   1.413       .  A
C1693      C1694   1.402       .  A
C1693      H1700   1.083       .  S
C1694      S1696   1.803       .  S
S1695      H1698   1.407       .  S
S1696      H1697   1.407       .  S
C1701      C1702   1.413       .  A
C1701      C1706   1.417       .  A
C1702      C1703   1.403       .  A
C1702      H1711   1.083       .  S
C1703      C1704   1.414       .  A
C1703      S1707   1.803       .  S
C1704      C1705   1.409       .  A
C1705      C1706   1.403       .  A
C1705      H1712   1.083       .  S
C1706      S1708   1.801       .  S
S1707      H1710   1.408       .  S
S1708      H1709   1.408       .  S
C1713      C1714   1.411   1_554  A
C1713      C1718   1.413       .  A
C1714      C1715   1.392       .  A
C1714      H1723   1.084       .  S
C1715      C1716   1.409       .  A
C1715      S1719   1.801       .  S
C1716      C1717   1.407   1_556  A
C1717      C1718   1.394       .  A
C1717      H1724   1.084       .  S
C1718      S1720   1.800       .  S
S1719      H1722   1.408       .  S
S1720      H1721   1.407       .  S
C1725      C1726   1.403       .  A
C1725      C1730   1.409       .  A
C1726      C1727   1.398       .  A
C1726      H1735   1.085       .  S
C1727      C1728   1.415       .  A
C1727      S1731   1.797       .  S
C1728      C1729   1.408       .  A
C1729      C1730   1.398       .  A
C1729      H1736   1.084       .  S
C1730      S1732   1.803       .  S
S1731      H1734   1.406       .  S
S1732      H1733   1.407   1_545  S
C1737      C1738   1.412   1_655  A
C1737      C1742   1.419       .  A
C1738      C1739   1.406       .  A
C1738      H1747   1.083   1_545  S
C1739      C1740   1.416       .  A
C1739      S1743   1.802       .  S
C1740      C1741   1.412   1_455  A
C1741      C1742   1.408       .  A
C1741      H1748   1.083       .  S
C1742      S1744   1.800       .  S
S1743      H1746   1.408       .  S
S1744      H1745   1.408       .  S
C1749      C1750   1.409       .  A
C1749      C1754   1.417       .  A
C1750      C1751   1.401       .  A
C1750      H1759   1.084       .  S
C1751      C1752   1.418       .  A
C1751      S1755   1.801       .  S
C1752      C1753   1.408       .  A
C1753      C1754   1.397       .  A
C1753      H1760   1.084       .  S
C1754      S1756   1.802       .  S
S1755      H1758   1.408       .  S
S1756      H1757   1.408       .  S
C1761      C1762   1.410       .  A
C1761      C1766   1.418       .  A
C1762      C1763   1.406   1_655  A
C1762      H1771   1.083   1_655  S
C1763      C1764   1.418       .  A
C1763      S1767   1.799       .  S
C1764      C1765   1.411   1_455  A
C1765      C1766   1.406       .  A
C1765      H1772   1.083       .  S
C1766      S1768   1.802       .  S
S1767      H1770   1.408       .  S
S1768      H1769   1.408       .  S
C1773      C1774   1.401       .  A
C1773      C1778   1.413   1_655  A
C1774      C1775   1.390       .  A
C1774      H1783   1.085       .  S
C1775      C1776   1.410       .  A
C1775      S1779   1.804       .  S
C1776      C1777   1.402       .  A
C1777      C1778   1.393   1_655  A
C1777      H1784   1.085   1_655  S
C1778      S1780   1.806       .  S
S1779      H1782   1.407       .  S
S1780      H1781   1.406       .  S
C1785      C1786   1.405       .  A
C1785      C1790   1.410       .  A
C1786      C1787   1.402       .  A
C1786      H1795   1.084       .  S
C1787      C1788   1.417       .  A
C1787      S1791   1.802       .  S
C1788      C1789   1.409       .  A
C1789      C1790   1.398       .  A
C1789      H1796   1.084       .  S
C1790      S1792   1.805       .  S
S1791      H1794   1.407       .  S
S1792      H1793   1.407       .  S
C1797      C1798   1.409       .  A
C1797      C1802   1.423       .  A
C1798      C1799   1.402       .  A
C1798      H1807   1.083       .  S
C1799      C1800   1.417       .  A
C1799      S1803   1.805   1_565  S
C1800      C1801   1.402       .  A
C1801      C1802   1.402       .  A
C1801      H1808   1.084       .  S
C1802      S1804   1.802       .  S
S1803      H1806   1.407       .  S
S1804      H1805   1.408       .  S
C1809      C1810   1.408       .  A
C1809      C1814   1.409       .  A
C1810      C1811   1.393   1_565  A
C1810      H1819   1.085       .  S
C1811      C1812   1.412       .  A
C1811      S1815   1.801       .  S
C1812      C1813   1.408       .  A
C1813      C1814   1.390   1_545  A
C1813      H1820   1.085       .  S
C1814      S1816   1.801       .  S
S1815      H1818   1.407       .  S
S1816      H1817   1.407       .  S
C1821      C1822   1.407       .  A
C1821      C1826   1.419       .  A
C1822      C1823   1.399       .  A
C1822      H1831   1.084       .  S
C1823      C1824   1.418       .  A
C1823      S1827   1.802       .  S
C1824      C1825   1.409       .  A
C1825      C1826   1.405       .  A
C1825      H1832   1.082       .  S
C1826      S1828   1.811       .  S
S1827      H1830   1.408       .  S
S1828      H1829   1.407       .  S
C1833      C1834   1.414       .  A
C1833      C1838   1.411       .  A
C1834      C1835   1.405       .  A
C1834      H1843   1.083       .  S
C1835      C1836   1.409       .  A
C1835      S1839   1.802       .  S
C1836      C1837   1.412       .  A
C1837      C1838   1.403       .  A
C1837      H1844   1.084       .  S
C1838      S1840   1.803       .  S
S1839      H1842   1.407       .  S
S1840      H1841   1.407       .  S
C1845      C1846   1.413       .  A
C1845      C1850   1.420       .  A
C1846      C1847   1.405       .  A
C1846      H1855   1.083       .  S
C1847      C1848   1.413       .  A
C1847      S1851   1.804       .  S
C1848      C1849   1.403       .  A
C1849      C1850   1.401       .  A
C1849      H1856   1.084       .  S
C1850      S1852   1.801       .  S
S1851      H1854   1.407       .  S
S1852      H1853   1.408       .  S
