geometry optimzed in LAMMPS
_audit_creation_date              2020-12-01 
_audit_creation_method            'lammps2cif' 
_symmetry_space_group_name_H-M    'P1' 
_symmetry_Int_Tables_number       1 
_symmetry_cell_setting            triclinic 
loop_ 
_symmetry_equiv_pos_as_xyz 
  x,y,z 
_cell_length_a                    57.93433178 
_cell_length_b                    44.348353778386745 
_cell_length_c                    26.356076606103386 
_cell_angle_alpha                 90.11099325296787 
_cell_angle_beta                  89.87602166197838 
_cell_angle_gamma                 89.49592030162769 
loop_ 
_atom_site_label 
_atom_site_type_symbol 
_atom_site_fract_x 
_atom_site_fract_y 
_atom_site_fract_z 
_atom_site_charge 
O1          O  0.77769876  0.35674844  0.65145283    -0.81000
C2          C  0.82055077  0.42573824  0.79708669     0.98400
O3          O  0.81551590  0.39833343  0.79068777    -0.70100
O4          O  0.79192233  0.35195742  0.75645071    -0.73700
Al5        Al  0.81469938  0.37809119  0.72697398     1.49000
C6          C  0.77053953  0.35446868  0.76478437     0.93600
O7          O  0.75178286  0.42980415  0.70560828    -0.79900
O8          O  0.78761059  0.45398649  0.63874203    -0.73500
Al9        Al  0.76711343  0.39436516  0.68063220     1.90100
O10         O  0.77982398  0.45637397  0.73913048    -0.72500
O11         O  0.82990143  0.43543509  0.65744693    -0.72400
O12         O  0.82208577  0.44326029  0.75963797    -0.78000
O13         O  0.84230054  0.39742779  0.70335812    -0.76200
O14         O  0.79520901  0.40532440  0.70148290    -1.12400
O15         O  0.81521368  0.35551673  0.66625566    -0.71600
C16         C  0.79755436  0.34498624  0.64497508     0.99200
C17         C  0.75884872  0.45257960  0.72965581     0.95600
Al18       Al  0.80409273  0.44378092  0.69866072     1.55600
O19         O  0.75903157  0.37493163  0.74302731    -0.76200
C20         C  0.84604415  0.41860006  0.67240210     0.99700
C21         C  0.77509489  0.44007346  0.60781174     0.94600
O22         O  0.77002041  0.41272752  0.61516959    -0.81500
O23         O  0.96882135  0.01667531  0.66131713    -0.81000
C24         C  0.93137596  0.43837257  0.79427094     0.98400
O25         O  0.92761077  0.46599547  0.78528342    -0.70100
O26         O  0.95680703  0.02362773  0.76535343    -0.73700
Al27       Al  0.93645428  0.49221991  0.73076882     1.49000
C28         C  0.97805258  0.01869863  0.77325342     0.93600
O29         O  0.99805054  0.44684523  0.72610474    -0.79900
O30         O  0.95296567  0.42718570  0.61893125    -0.73500
Al31       Al  0.98393842  0.47572799  0.68141975     1.90100
O32         O  0.97472986  0.41005264  0.70484504    -0.72500
O33         O  0.91584835  0.43538461  0.67467693    -0.72400
O34         O  0.93911588  0.42103623  0.76015330    -0.78000
O35         O  0.90973288  0.48281854  0.69138025    -0.76200
O36         O  0.95536521  0.46517959  0.70091591    -1.12400
O37         O  0.93147032  0.02030434  0.67747696    -0.71600
C38         C  0.94938231  0.02971034  0.65556105     0.99200
C39         C  0.99297539  0.41908949  0.72508036     0.95600
Al40       Al  0.94632353  0.42707926  0.69052534     1.55600
O41         O  0.98975284  0.50654518  0.73106730    -0.76200
C42         C  0.90271321  0.45782414  0.67535678     0.99700
C43         C  0.97322485  0.43092153  0.60243477     0.94600
O44         O  0.98674434  0.44800739  0.62611374    -0.81500
O45         O  0.76520290  0.99823491  0.09404603    -0.81000
C46         C  0.81751899  0.43507546  0.94068431     0.98400
O47         O  0.81064362  0.46208495  0.94518616    -0.70100
O48         O  0.78325647  0.99786404  0.95666294    -0.73700
Al49       Al  0.80952478  0.48366682  0.00747883     1.49000
C50         C  0.76208846  0.00381055  0.95970665     0.93600
O51         O  0.74896582  0.42998620  0.03326929    -0.79900
O52         O  0.78652842  0.40856241  0.10307979    -0.73500
Al53       Al  0.76293499  0.46622002  0.05743221     1.90100
O54         O  0.77853430  0.40379910  0.00344888    -0.72500
O55         O  0.82824602  0.42936677  0.08059919    -0.72400
O56         O  0.81967980  0.41843235  0.97923785    -0.78000
O57         O  0.83830848  0.46625073  0.03011503    -0.76200
O58         O  0.79144731  0.45619555  0.03612679    -1.12400
O59         O  0.79553225  0.01589827  0.05260604    -0.71600
C60         C  0.78013633  0.01844436  0.08670322     0.99200
C61         C  0.75731941  0.40697366  0.01138564     0.95600
Al62       Al  0.80228297  0.41851298  0.04153227     1.55600
O63         O  0.75355428  0.48495875  0.99493357    -0.76200
C64         C  0.84349034  0.44632993  0.06255623     0.99700
C65         C  0.77258088  0.42175813  0.13252223     0.94600
O66         O  0.76608210  0.44849543  0.12345704    -0.81500
O67         O  0.97661611  0.37206858  0.10005767    -0.81000
C68         C  0.93086102  0.43177367  0.93963297     0.98400
O69         O  0.93000949  0.40378496  0.94862133    -0.70100
O70         O  0.96314050  0.36478599  0.96098026    -0.73700
Al71       Al  0.93963805  0.37960582  0.00527486     1.49000
C72         C  0.98424202  0.35972340  0.96760941     0.93600
O73         O  0.99751535  0.43046021  0.00679409    -0.79900
O74         O  0.95169169  0.44781095  0.11442529    -0.73500
Al75       Al  0.98589096  0.40159745  0.05315889     1.90100
O76         O  0.97152106  0.46504739  0.02648378    -0.72500
O77         O  0.91487648  0.43506270  0.06145961    -0.72400
O78         O  0.93627757  0.45024162  0.97395654    -0.78000
O79         O  0.91157813  0.38764367  0.04224710    -0.76200
O80         O  0.95644963  0.40879179  0.03398878    -1.12400
O81         O  0.94779578  0.35144778  0.05696441    -0.71600
C82         C  0.96221334  0.35115318  0.09326097     0.99200
C83         C  0.99019278  0.45733005  0.00576346     0.95600
Al84       Al  0.94456991  0.44591993  0.04333879     1.55600
O85         O  0.99424561  0.37109234  0.00500385    -0.76200
C86         C  0.90299790  0.41179111  0.05926114     0.99700
C87         C  0.97227032  0.44708513  0.12994509     0.94600
O88         O  0.98689637  0.43074920  0.10710625    -0.81500
O89         O  0.02337526  0.29675422  0.86933427    -0.81000
C90         C  0.07415460  0.31317062  0.68931231     0.98400
O91         O  0.07699232  0.32938869  0.72857565    -0.70100
O92         O  0.03700591  0.34655271  0.75955672    -0.73700
Al93       Al  0.06088005  0.32815615  0.79336626     1.49000
C94         C  0.01574309  0.34240739  0.76285442     0.93600
O95         O  0.01266590  0.26387629  0.73803200    -0.79900
O96         O  0.06836683  0.23964151  0.81321802    -0.73500
Al97       Al  0.02113824  0.28107121  0.80230908     1.90100
O98         O  0.04447152  0.23871719  0.72479532    -0.72500
O99         O  0.09726115  0.28003791  0.77596190    -0.72400
O100        O  0.06856799  0.28576221  0.69334058    -0.78000
O101        O  0.08713625  0.31497452  0.83004231    -0.76200
O102        O  0.04982653  0.29101676  0.78390875    -1.12400
O103        O  0.04580909  0.33564596  0.85723609    -0.71600
C104        C  0.03083799  0.32208107  0.88324708     0.99200
C105        C  0.02322235  0.24239538  0.71663785     0.95600
Al106      Al  0.06813334  0.26349322  0.75445828     1.55600
O107        O  0.00742511  0.31814756  0.77981036    -0.76200
C108        C  0.10253772  0.29876801  0.81003627     0.99700
C109        C  0.05034577  0.22935114  0.83362827     0.94600
O110        O  0.03071174  0.24213966  0.82841490    -0.81500
O111        O  0.23801467  0.34309495  0.86811677    -0.81000
C112        C  0.18332586  0.32382921  0.69501883     0.98400
O113        O  0.18177033  0.30802237  0.73489979    -0.70100
O114        O  0.22327418  0.29231271  0.75456439    -0.73700
Al115      Al  0.20081389  0.30917925  0.79523719     1.49000
C116        C  0.24460904  0.29487500  0.75973851     0.93600
O117        O  0.24672763  0.37165416  0.73388451    -0.79900
O118        O  0.19367125  0.39882313  0.81639954    -0.73500
Al119      Al  0.23995115  0.35646609  0.80002120     1.90100
O120        O  0.21488791  0.39770492  0.72457711    -0.72500
O121        O  0.16388704  0.35722760  0.78554616    -0.72400
O122        O  0.18928954  0.35116249  0.69759248    -0.78000
O123        O  0.17583646  0.32172616  0.83716372    -0.76200
O124        O  0.21098421  0.34656128  0.78508946    -1.12400
O125        O  0.21924994  0.30113333  0.85565937    -0.71600
C126        C  0.23341327  0.31657342  0.88131129     0.99200
C127        C  0.23579430  0.39310389  0.71345056     0.95600
Al128      Al  0.19190993  0.37394234  0.75837652     1.55600
O129        O  0.25335279  0.31836132  0.77885052    -0.76200
C130        C  0.15972561  0.33770935  0.81915448     0.99700
C131        C  0.21242689  0.40897415  0.83376788     0.94600
O132        O  0.23160977  0.39594081  0.82491286    -0.81500
O133        O  0.02024990  0.33475247  0.35946981    -0.81000
C134        C  0.07048720  0.32360877  0.54496298     0.98400
O135        O  0.07267218  0.30660525  0.50665641    -0.70100
O136        O  0.03167929  0.29087832  0.48044254    -0.73700
Al137      Al  0.05593159  0.30606711  0.44342682     1.49000
C138        C  0.01047759  0.29434905  0.47223753     0.93600
O139        O  0.00664896  0.37228260  0.48706785    -0.79900
O140        O  0.06327513  0.39476735  0.41748247    -0.73500
Al141      Al  0.01655474  0.35325124  0.42524195     1.90100
O142        O  0.03846199  0.39577369  0.50517213    -0.72500
O143        O  0.09170564  0.35471271  0.45520313    -0.72400
O144        O  0.06369203  0.35056996  0.53980503    -0.78000
O145        O  0.08210385  0.31737828  0.40516672    -0.76200
O146        O  0.04490467  0.34364466  0.44793213    -1.12400
O147        O  0.04090120  0.29539852  0.38138499    -0.71600
C148        C  0.02693188  0.30790690  0.35137074     0.99200
C149        C  0.01710899  0.39236362  0.51143166     0.95600
Al150      Al  0.06271393  0.37156533  0.47675538     1.55600
O151        O  0.00247878  0.31726439  0.44970746    -0.76200
C152        C  0.09711372  0.33482752  0.42290269     0.99700
C153        C  0.04590376  0.40422838  0.39355765     0.94600
O154        O  0.02640331  0.39133403  0.39673050    -0.81500
O155        O  0.23125232  0.29493316  0.36587356    -0.81000
C156        C  0.18235492  0.31072005  0.55120352     0.98400
O157        O  0.17949698  0.32686860  0.51213425    -0.70100
O158        O  0.22038313  0.34130349  0.48536180    -0.73700
Al159      Al  0.19628571  0.32620085  0.44868561     1.49000
C160        C  0.24145506  0.33811529  0.47587560     0.93600
O161        O  0.24491688  0.25970738  0.49512649    -0.79900
O162        O  0.18771140  0.23809182  0.42565504    -0.73500
Al163      Al  0.23512371  0.27813847  0.43235516     1.90100
O164        O  0.21290952  0.23649907  0.51266656    -0.72500
O165        O  0.15998751  0.27903813  0.46337365    -0.72400
O166        O  0.18877037  0.28349838  0.54692671    -0.78000
O167        O  0.17021801  0.31468461  0.41069908    -0.76200
O168        O  0.20694977  0.28860522  0.45472615    -1.12400
O169        O  0.21146292  0.33548025  0.38577378    -0.71600
C170        C  0.22459645  0.32140901  0.35562114     0.99200
C171        C  0.23435982  0.23924153  0.51862618     0.95600
Al172      Al  0.18887872  0.26156721  0.48463293     1.55600
O173        O  0.24950973  0.31469904  0.45451384    -0.76200
C174        C  0.15496420  0.29791664  0.42921755     0.99700
C175        C  0.20492453  0.22833753  0.40124250     0.94600
O176        O  0.22476812  0.24017919  0.40537060    -0.81500
O177        O  0.72527466  0.07254628  0.86367251    -0.81000
C178        C  0.67685785  0.06144093  0.67857745     0.98400
O179        O  0.67412615  0.04402245  0.71606438    -0.70100
O180        O  0.71507435  0.02761494  0.74092716    -0.73700
Al181      Al  0.69095288  0.04257865  0.77923624     1.49000
C182        C  0.73594219  0.02933424  0.75262021     0.93600
O183        O  0.73950705  0.10741087  0.73498971    -0.79900
O184        O  0.68288132  0.13073575  0.80948556    -0.73500
Al185      Al  0.72980707  0.08934380  0.79773391     1.90100
O186        O  0.70774304  0.13301571  0.72127213    -0.72500
O187        O  0.65432324  0.09090177  0.76968196    -0.72400
O188        O  0.68286541  0.08844521  0.68520570    -0.78000
O189        O  0.66486968  0.05328588  0.81826745    -0.76200
O190        O  0.70149689  0.08014484  0.77573669    -1.12400
O191        O  0.70628558  0.03203686  0.84159876    -0.71600
C192        C  0.71901365  0.04584614  0.87256522     0.99200
C193        C  0.72907140  0.12893848  0.71344972     0.95600
Al194      Al  0.68339053  0.10846725  0.74879028     1.55600
O195        O  0.74389261  0.05207972  0.77554390    -0.76200
C196        C  0.64931786  0.07019291  0.80074021     0.99700
C197        C  0.70075111  0.14076465  0.83060045     0.94600
O198        O  0.72036295  0.12810673  0.82475909    -0.81500
O199        O  0.51525987  0.03494801  0.85830323    -0.81000
C200        C  0.56942302  0.03848731  0.67864051     0.98400
O201        O  0.57192736  0.05555742  0.71650511    -0.70100
O202        O  0.53079277  0.07407164  0.73389417    -0.73700
Al203      Al  0.55310825  0.05914349  0.77643384     1.49000
C204        C  0.50936798  0.07291676  0.74014109     0.93600
O205        O  0.50254541  0.99706453  0.73259598    -0.79900
O206        O  0.55243436  0.47335367  0.80909198    -0.73500
Al207      Al  0.51163310  0.01637863  0.79372415     1.90100
O208        O  0.53315973  0.47438422  0.71653574    -0.72500
O209        O  0.58743092  0.00755028  0.77481710    -0.72400
O210        O  0.56205684  0.01198375  0.68484783    -0.78000
O211        O  0.57740321  0.04739710  0.81935177    -0.76200
O212        O  0.54093242  0.02240869  0.77393371    -1.12400
O213        O  0.53673294  0.07287800  0.83540404    -0.71600
C214        C  0.52272915  0.06115854  0.86596594     0.99200
C215        C  0.51230365  0.47810308  0.70563790     0.95600
Al216      Al  0.55826919  0.99227242  0.74954790     1.55600
O217        O  0.49993615  0.05261906  0.76593597    -0.76200
C218        C  0.59264469  0.02907876  0.80426598     0.99700
C219        C  0.53351301  0.46609674  0.82978785     0.94600
O220        O  0.51496627  0.48089584  0.82236397    -0.81500
O221        O  0.73567001  0.02824122  0.35865149    -0.81000
C222        C  0.68344672  0.05106959  0.53600303     0.98400
O223        O  0.68099508  0.06559760  0.49484835    -0.70100
O224        O  0.72123291  0.08349612  0.46837949    -0.73700
Al225      Al  0.69908555  0.06334921  0.43252809     1.49000
C226        C  0.74252136  0.08217487  0.46040713     0.93600
O227        O  0.74992047  0.01003619  0.49517938    -0.79900
O228        O  0.68843370  0.47163902  0.42042560    -0.73500
Al229      Al  0.74070991  0.01935274  0.42801273     1.90100
O230        O  0.70887549  0.47329579  0.51279668    -0.72500
O231        O  0.66566474  0.01281378  0.45224312    -0.72400
O232        O  0.69209458  0.02483534  0.53604658    -0.78000
O233        O  0.67441013  0.04674424  0.39496268    -0.76200
O234        O  0.71175089  0.02757743  0.44602837    -1.12400
O235        O  0.71612786  0.07019993  0.36951241    -0.71600
C236        C  0.73047569  0.05443086  0.34411758     0.99200
C237        C  0.72955081  0.47879617  0.52403351     0.95600
Al238      Al  0.69534744  0.99996889  0.47866372     1.55600
O239        O  0.75206050  0.05917144  0.44095529    -0.76200
C240        C  0.65972934  0.03014658  0.41630638     0.99700
C241        C  0.70799065  0.46307503  0.40377307     0.94600
O242        O  0.72629020  0.47705228  0.41410214    -0.81500
O243        O  0.52044285  0.06853820  0.35223260    -0.81000
C244        C  0.57102504  0.05071921  0.53355593     0.98400
O245        O  0.57375222  0.03496992  0.49371724    -0.70100
O246        O  0.53383091  0.02048109  0.46068490    -0.73700
Al247      Al  0.55836722  0.03761829  0.42846845     1.49000
C248        C  0.51268826  0.02645209  0.46089229     0.93600
O249        O  0.50995090  0.10633394  0.48016033    -0.79900
O250        O  0.56678959  0.12673576  0.41173129    -0.73500
Al251      Al  0.51902978  0.08649135  0.41830348     1.90100
O252        O  0.54246702  0.12717439  0.49935987    -0.72500
O253        O  0.59486096  0.08451178  0.44815395    -0.72400
O254        O  0.56567523  0.07842084  0.53036224    -0.78000
O255        O  0.58544161  0.04966990  0.39363289    -0.76200
O256        O  0.54752586  0.07528495  0.43809537    -1.12400
O257        O  0.54407961  0.03053152  0.36390450    -0.71600
C258        C  0.52844100  0.04328874  0.33836490     0.99200
C259        C  0.52090452  0.12611127  0.50401600     0.95600
Al260      Al  0.56581796  0.10173170  0.46949601     1.55600
O261        O  0.50463316  0.05116123  0.44451044    -0.76200
C262        C  0.60053163  0.06571824  0.41430406     0.99700
C263        C  0.54951987  0.13666198  0.38744149     0.94600
O264        O  0.52989508  0.12389694  0.38944364    -0.81500
O265        O  0.72656022  0.32494748  0.36900265    -0.81000
C266        C  0.67878336  0.30625762  0.18360404     0.98400
O267        O  0.67654958  0.29013664  0.22277915    -0.70100
O268        O  0.71826707  0.27900187  0.24859063    -0.73700
Al269      Al  0.69343355  0.29195757  0.28578153     1.49000
C270        C  0.73920640  0.28374001  0.25715524     0.93600
O271        O  0.73881192  0.36136118  0.24089968    -0.79900
O272        O  0.68049967  0.38012922  0.30789141    -0.73500
Al273      Al  0.72968157  0.34226828  0.30285133     1.90100
O274        O  0.70592892  0.38225579  0.22086962    -0.72500
O275        O  0.65492938  0.33693599  0.27186575    -0.72400
O276        O  0.68388751  0.33380747  0.18774195    -0.78000
O277        O  0.66682042  0.30158184  0.32406313    -0.76200
O278        O  0.70213930  0.33021884  0.28005508    -1.12400
O279        O  0.70919640  0.28322306  0.34811093    -0.71600
C280        C  0.72166840  0.29784449  0.37830749     0.99200
C281        C  0.72758663  0.38085257  0.21631354     0.95600
Al282      Al  0.68290697  0.35608113  0.24964952     1.55600
O283        O  0.74600553  0.30709629  0.27997177    -0.76200
C284        C  0.65081472  0.31752345  0.30574979     0.99700
C285        C  0.69716364  0.39052616  0.33274123     0.94600
O286        O  0.71735261  0.37916557  0.32985542    -0.81500
O287        O  0.51565381  0.28522567  0.35852582    -0.81000
C288        C  0.57094616  0.29250331  0.18139617     0.98400
O289        O  0.57346831  0.30903864  0.22015990    -0.70100
O290        O  0.53314643  0.32993465  0.24215735    -0.73700
Al291      Al  0.55515979  0.31111406  0.28155689     1.49000
C292        C  0.51166545  0.32830665  0.24639999     0.93600
O293        O  0.50456524  0.25072272  0.22822693    -0.79900
O294        O  0.55650081  0.22079833  0.30768599    -0.73500
Al295      Al  0.51300012  0.26830490  0.29197338     1.90100
O296        O  0.53567909  0.22349663  0.21658435    -0.72500
O297        O  0.58891414  0.25873015  0.27451672    -0.72400
O298        O  0.56371397  0.26585373  0.18610728    -0.78000
O299        O  0.57916571  0.29675908  0.32307926    -0.76200
O300        O  0.54246435  0.27472295  0.27455554    -1.12400
O301        O  0.53902102  0.32245238  0.34194495    -0.71600
C302        C  0.52382256  0.31072300  0.36958360     0.99200
C303        C  0.51489586  0.22908582  0.20673535     0.95600
Al304      Al  0.55979099  0.24480776  0.24870662     1.55600
O305        O  0.50191417  0.30595427  0.26655651    -0.76200
C306        C  0.59418516  0.27863206  0.30666380     0.99700
C307        C  0.53729773  0.21339137  0.32695953     0.94600
O308        O  0.51925792  0.22931946  0.32061891    -0.81500
O309        O  0.73600007  0.28811901  0.86350560    -0.81000
C310        C  0.67990121  0.29440307  0.03942129     0.98400
O311        O  0.67712010  0.31092208  0.00084290    -0.70100
O312        O  0.71732562  0.33112403  0.98031428    -0.73700
Al313      Al  0.69554003  0.31316310  0.94001172     1.49000
C314        C  0.73885590  0.32900034  0.97759019     0.93600
O315        O  0.74676814  0.25129375  0.99199746    -0.79900
O316        O  0.69491247  0.22358786  0.91231133    -0.73500
Al317      Al  0.73822187  0.27003207  0.92918060     1.90100
O318        O  0.71591206  0.22449060  0.00335454    -0.72500
O319        O  0.66224431  0.26130993  0.94635002    -0.72400
O320        O  0.68762353  0.26778000  0.03467009    -0.78000
O321        O  0.67140576  0.29943597  0.89810562    -0.76200
O322        O  0.70862326  0.27665819  0.94637227    -1.12400
O323        O  0.71171086  0.32488163  0.88001983    -0.71600
C324        C  0.72735931  0.31352415  0.85265121     0.99200
C325        C  0.73681318  0.22937585  0.01262784     0.95600
Al326      Al  0.69157446  0.24688441  0.97179377     1.55600
O327        O  0.74894805  0.30683696  0.95694644    -0.76200
C328        C  0.65661245  0.28124506  0.91438314     0.99700
C329        C  0.71396993  0.21637878  0.89172142     0.94600
O330        O  0.73204291  0.23181127  0.89823946    -0.81500
O331        O  0.52394103  0.32722002  0.85342685    -0.81000
C332        C  0.57141597  0.30454344  0.03666866     0.98400
O333        O  0.57377141  0.28881765  0.99672407    -0.70100
O334        O  0.53244930  0.27634380  0.97057325    -0.73700
Al335      Al  0.55651933  0.29118323  0.93361778     1.49000
C336        C  0.51156120  0.27977757  0.95994810     0.93600
O337        O  0.50877977  0.35627200  0.98504803    -0.79900
O338        O  0.56584769  0.38072035  0.91579833    -0.73500
Al339      Al  0.51870554  0.34068735  0.92087139     1.90100
O340        O  0.54089360  0.37918679  0.00403584    -0.72500
O341        O  0.59357884  0.33765162  0.94874544    -0.72400
O342        O  0.56554241  0.33198378  0.03361920    -0.78000
O343        O  0.58284198  0.30232668  0.89547898    -0.76200
O344        O  0.54667107  0.32912786  0.94220120    -1.12400
O345        O  0.53986969  0.28358829  0.87060061    -0.71600
C346        C  0.52746140  0.29998501  0.84206338     0.99200
C347        C  0.51936602  0.37618793  0.00969560     0.95600
Al348      Al  0.56503467  0.35523447  0.97300738     1.55600
O349        O  0.50398373  0.30332460  0.93838468    -0.76200
C350        C  0.59838838  0.31853010  0.91450125     0.99700
C351        C  0.54819779  0.39195466  0.89497296     0.94600
O352        O  0.52854214  0.37982660  0.89919527    -0.81500
O353        O  0.26936841  0.37521736  0.13214917    -0.81000
C354        C  0.31490279  0.44213693  0.28309594     0.98400
O355        O  0.31875849  0.41448776  0.27407977    -0.70100
O356        O  0.28668094  0.37397194  0.27243463    -0.73700
Al357      Al  0.30787086  0.38764039  0.22207072     1.49000
C358        C  0.26613910  0.36558599  0.26799826     0.93600
O359        O  0.24744390  0.43250619  0.22589190    -0.79900
O360        O  0.28949418  0.45138635  0.11099443    -0.73500
Al361      Al  0.25950146  0.40426984  0.17911435     1.90100
O362        O  0.26943076  0.46956666  0.19910182    -0.72500
O363        O  0.32889099  0.44391995  0.16349987    -0.72400
O364        O  0.30621206  0.45911704  0.24990646    -0.78000
O365        O  0.33347951  0.39591155  0.17829488    -0.76200
O366        O  0.28870782  0.41455830  0.19408145    -1.12400
O367        O  0.29915301  0.35665390  0.17520361    -0.71600
C368        C  0.28431927  0.35486096  0.13983019     0.99200
C369        C  0.25240911  0.46008437  0.22404764     0.95600
Al370      Al  0.29783419  0.45241621  0.18170586     1.55600
O371        O  0.25473745  0.37358692  0.22976886    -0.76200
C372        C  0.34140763  0.42070060  0.16325159     0.99700
C373        C  0.26849859  0.44908221  0.09839615     0.94600
O374        O  0.25533048  0.43244189  0.12417116    -0.81500
O375        O  0.47164561  0.00434995  0.13587467    -0.81000
C376        C  0.43095400  0.42594400  0.27713018     0.98400
O377        O  0.42798905  0.45398696  0.27078520    -0.70100
O378        O  0.46077035  0.01169390  0.24359535    -0.73700
Al379      Al  0.43812537  0.48166959  0.21980697     1.49000
C380        C  0.48226195  0.00779180  0.24931456     0.93600
O381        O  0.49784284  0.43384731  0.21407083    -0.79900
O382        O  0.45342647  0.41988452  0.10210755    -0.73500
Al383      Al  0.48526418  0.46450372  0.17085549     1.90100
O384        O  0.47406433  0.39880138  0.18697577    -0.72500
O385        O  0.41502646  0.42767519  0.15822018    -0.72400
O386        O  0.43841372  0.40938868  0.24175663    -0.78000
O387        O  0.41132854  0.47506937  0.17885160    -0.76200
O388        O  0.45619223  0.45475990  0.18790996    -1.12400
O389        O  0.43474737  0.00810862  0.15656267    -0.71600
C390        C  0.45195955  0.01696233  0.13169317     0.99200
C391        C  0.49215444  0.40640854  0.20972134     0.95600
Al392      Al  0.44599789  0.41755225  0.17335588     1.55600
O393        O  0.49173244  0.49396379  0.22312176    -0.76200
C394        C  0.40281227  0.45104407  0.16190891     0.99700
C395        C  0.47436146  0.42170532  0.08863570     0.94600
O396        O  0.48795696  0.43778897  0.11409316    -0.81500
O397        O  0.26883667  0.00398873  0.60443399    -0.81000
C398        C  0.31964463  0.44953904  0.42730854     0.98400
O399        O  0.31263743  0.47623034  0.43511054    -0.70100
O400        O  0.28453809  0.00451540  0.46633861    -0.73700
Al401      Al  0.31220483  0.49551422  0.49969217     1.49000
C402        C  0.26367874  0.01171711  0.47170199     0.93600
O403        O  0.25294082  0.43889220  0.52690659    -0.79900
O404        O  0.29076619  0.41726053  0.58886301    -0.73500
Al405      Al  0.26663969  0.47548462  0.55064545     1.90100
O406        O  0.28174276  0.41536082  0.48859262    -0.72500
O407        O  0.33119539  0.43975781  0.56689632    -0.72400
O408        O  0.32269193  0.43171463  0.46416074    -0.78000
O409        O  0.34150783  0.47761680  0.51886284    -0.76200
O410        O  0.29471384  0.46682047  0.52626593    -1.12400
O411        O  0.29905784  0.02037253  0.56125958    -0.71600
C412        C  0.28400266  0.02374910  0.59592780     0.99200
C413        C  0.26091790  0.41703308  0.50123546     0.95600
Al414      Al  0.30572625  0.42929672  0.52735052     1.55600
O415        O  0.25615246  0.49445799  0.48995604    -0.76200
C416        C  0.34656827  0.45662477  0.54948578     0.99700
C417        C  0.27845873  0.43047766  0.62162519     0.94600
O418        O  0.27220453  0.45756007  0.61526941    -0.81500
O419        O  0.47317213  0.35593032  0.56951103    -0.81000
C420        C  0.42624990  0.41760701  0.42097578     0.98400
O421        O  0.43303648  0.39086716  0.42899950    -0.70100
O422        O  0.45873965  0.34695210  0.46737339    -0.73700
Al423      Al  0.43479298  0.37275664  0.49434204     1.49000
C424        C  0.47980611  0.35079454  0.45744177     0.93600
O425        O  0.49488726  0.42939153  0.51058418    -0.79900
O426        O  0.45808755  0.45207407  0.57831670    -0.73500
Al427      Al  0.48173055  0.39337459  0.53785696     1.90100
O428        O  0.46518007  0.45325949  0.47696002    -0.72500
O429        O  0.41741971  0.42948054  0.56127584    -0.72400
O430        O  0.42391113  0.43598189  0.45745306    -0.78000
O431        O  0.40599711  0.39108682  0.51586293    -0.76200
O432        O  0.45304078  0.40184623  0.51735460    -1.12400
O433        O  0.43552548  0.35262331  0.55700376    -0.71600
C434        C  0.45384397  0.34352909  0.57796636     0.99200
C435        C  0.48631613  0.45139682  0.48645010     0.95600
Al436      Al  0.44205285  0.43939933  0.51864524     1.55600
O437        O  0.49027801  0.37303864  0.47612105    -0.76200
C438        C  0.40164678  0.41248174  0.54629094     0.99700
C439        C  0.47132585  0.43958748  0.60992372     0.94600
O440        O  0.47834963  0.41281164  0.60271360    -0.81500
O441        O  0.77473410  0.10908338  0.14882942    -0.81000
C442        C  0.81937861  0.17263154  0.29932999     0.98400
O443        O  0.81113537  0.14659336  0.29294366    -0.70100
O444        O  0.78351141  0.10385622  0.25565453    -0.73700
Al445      Al  0.81050511  0.12580697  0.22971121     1.49000
C446        C  0.76259884  0.11219782  0.26041714     0.93600
O447        O  0.75447569  0.18677225  0.19387769    -0.79900
O448        O  0.79331862  0.20437689  0.13438529    -0.73500
Al449      Al  0.76707619  0.14894921  0.17369757     1.90100
O450        O  0.78305069  0.20907133  0.23376115    -0.72500
O451        O  0.83284519  0.17868636  0.16049150    -0.72400
O452        O  0.82309635  0.18957809  0.26169148    -0.78000
O453        O  0.84093961  0.14072739  0.21093540    -0.76200
O454        O  0.79485881  0.15560679  0.19986358    -1.12400
O455        O  0.81130247  0.10274466  0.16975719    -0.71600
C456        C  0.79369079  0.09464477  0.14557838     0.99200
C457        C  0.76225277  0.20785164  0.22088606     0.95600
Al458      Al  0.80716675  0.19220027  0.19745508     1.55600
O459        O  0.75505169  0.13404708  0.23515445    -0.76200
C460        C  0.84734613  0.16104604  0.18019699     0.99700
C461        C  0.78098013  0.19145008  0.10168232     0.94600
O462        O  0.77460860  0.16454769  0.10839444    -0.81500
O463        O  0.97250078  0.26323950  0.15746640    -0.81000
C464        C  0.93087270  0.19373134  0.30324146     0.98400
O465        O  0.93675590  0.22097797  0.29824944    -0.70100
O466        O  0.96040230  0.26778110  0.26281368    -0.73700
Al467      Al  0.93661084  0.24197362  0.23539920     1.49000
C468        C  0.98196914  0.26521703  0.26886348     0.93600
O469        O  0.99842703  0.18870172  0.20605478    -0.79900
O470        O  0.96084400  0.16722095  0.14041551    -0.73500
Al471      Al  0.98327497  0.22525541  0.18420490     1.90100
O472        O  0.97004691  0.16303035  0.24018717    -0.72500
O473        O  0.91944451  0.18690252  0.16400016    -0.72400
O474        O  0.92870666  0.17685519  0.26500470    -0.78000
O475        O  0.90801932  0.22335229  0.21460134    -0.76200
O476        O  0.95530614  0.21476591  0.20689887    -1.12400
O477        O  0.93515253  0.26458617  0.17543941    -0.71600
C478        C  0.95247898  0.27477745  0.15243500     0.99200
C479        C  0.99090337  0.16561021  0.22862385     0.95600
Al480      Al  0.94561517  0.17687652  0.20247184     1.55600
O481        O  0.99277693  0.24408728  0.24675335    -0.76200
C482        C  0.90355568  0.20292740  0.18255039     0.99700
C483        C  0.97306253  0.18125831  0.10903952     0.94600
O484        O  0.97913525  0.20806663  0.11798077    -0.81500
O485        O  0.77150705  0.24722839  0.59490406    -0.81000
C486        C  0.81837750  0.18090710  0.44376389     0.98400
O487        O  0.81990087  0.20908164  0.45049194    -0.70100
O488        O  0.78782003  0.25012540  0.45713001    -0.73700
Al489      Al  0.81019977  0.23532131  0.50438328     1.49000
C490        C  0.76670727  0.25605758  0.46166312     0.93600
O491        O  0.75188688  0.18622625  0.50394749    -0.79900
O492        O  0.79457149  0.17073159  0.61800962    -0.73500
Al493      Al  0.76273626  0.21623244  0.54950434     1.90100
O494        O  0.77619746  0.15104725  0.52965406    -0.72500
O495        O  0.83334392  0.18059442  0.56685495    -0.72400
O496        O  0.81251962  0.16363808  0.47933543    -0.78000
O497        O  0.83754390  0.22720982  0.54344514    -0.76200
O498        O  0.79236114  0.20756277  0.53404100    -1.12400
O499        O  0.80189005  0.26535011  0.55353016    -0.71600
C500        C  0.78658220  0.26742831  0.58808537     0.99200
C501        C  0.75863601  0.15906723  0.50512366     0.95600
Al502      Al  0.80330311  0.17023797  0.54743149     1.55600
O503        O  0.75580834  0.24557067  0.49856545    -0.76200
C504        C  0.84567481  0.20345817  0.56275389     0.99700
C505        C  0.77358128  0.17256860  0.63099818     0.94600
O506        O  0.75995946  0.18879179  0.60538122    -0.81500
O507        O  0.98192627  0.11961769  0.58530274    -0.81000
C508        C  0.93087147  0.18361204  0.44618975     0.98400
O509        O  0.93815455  0.15676720  0.45056700    -0.70100
O510        O  0.96589933  0.11244231  0.48016388    -0.73700
Al511      Al  0.94173971  0.13553018  0.51243733     1.49000
C512        C  0.98675268  0.11717446  0.46977468     0.93600
O513        O  0.99969895  0.19423775  0.52633811    -0.79900
O514        O  0.96194551  0.21249808  0.60677618    -0.73500
Al515      Al  0.98858792  0.15781697  0.55421691     1.90100
O516        O  0.96847106  0.22041020  0.50726559    -0.72500
O517        O  0.92088658  0.18855368  0.58604289    -0.72400
O518        O  0.92835757  0.20037737  0.48460899    -0.78000
O519        O  0.91243920  0.15027415  0.53744736    -0.76200
O520        O  0.95894345  0.16508639  0.53830913    -1.12400
O521        O  0.94470059  0.11196534  0.57154874    -0.71600
C522        C  0.96367862  0.10445361  0.59197620     0.99200
C523        C  0.98997905  0.21722026  0.50784469     0.95600
Al524      Al  0.94607737  0.20188239  0.54589467     1.55600
O525        O  0.99684718  0.13895025  0.49053978    -0.76200
C526        C  0.90626815  0.17046346  0.56861683     0.99700
C527        C  0.97829212  0.20140591  0.63227513     0.94600
O528        O  0.98709265  0.17622985  0.62004471    -0.81500
O529        O  0.02428636  0.05185546  0.37195085    -0.81000
C530        C  0.07096403  0.04792778  0.18130354     0.98400
O531        O  0.07209492  0.06974926  0.21239874    -0.70100
O532        O  0.03094035  0.08621093  0.23669844    -0.73700
Al533      Al  0.05602466  0.07630405  0.27653312     1.49000
C534        C  0.01071459  0.08631916  0.25324685     0.93600
O535        O  0.00837430  0.00990020  0.25067388    -0.79900
O536        O  0.05386726  0.48954661  0.31817835    -0.73500
Al537      Al  0.01839344  0.03091995  0.30978373     1.90100
O538        O  0.03393424  0.49036337  0.22650847    -0.72500
O539        O  0.09352439  0.02771579  0.28165309    -0.72400
O540        O  0.06587648  0.02200177  0.19656305    -0.78000
O541        O  0.08299072  0.07099760  0.31509170    -0.76200
O542        O  0.04644785  0.03850645  0.28400338    -1.12400
O543        O  0.04109722  0.09137178  0.33815846    -0.71600
C544        C  0.02956121  0.07954068  0.37388151     0.99200
C545        C  0.01302821  0.49392957  0.21582356     0.95600
Al546      Al  0.06461043  0.00821909  0.26406049     1.55600
O547        O  0.00375643  0.06636322  0.28346272    -0.76200
C548        C  0.09848149  0.05201741  0.30451669     0.99700
C549        C  0.03467117  0.48196513  0.33780115     0.94600
O550        O  0.01631021  0.49721118  0.33108663    -0.81500
O551        O  0.23042637  0.08457193  0.38066729    -0.81000
C552        C  0.18402583  0.07255379  0.19212495     0.98400
O553        O  0.17967161  0.05757581  0.23184602    -0.70100
O554        O  0.21750441  0.03476415  0.26529850    -0.73700
Al555      Al  0.19476998  0.05670975  0.29731428     1.49000
C556        C  0.23829920  0.03404177  0.27809938     0.93600
O557        O  0.25058646  0.10635301  0.24884229    -0.79900
O558        O  0.19765237  0.14738484  0.31329838    -0.73500
Al559      Al  0.23825915  0.09568277  0.31314051     1.90100
O560        O  0.22392025  0.13916120  0.22777066    -0.72500
O561        O  0.16433679  0.11101577  0.27593662    -0.72400
O562        O  0.19333385  0.09822817  0.19522116    -0.78000
O563        O  0.16980198  0.07489701  0.33108925    -0.76200
O564        O  0.20968022  0.09131854  0.28925385    -1.12400
O565        O  0.20759708  0.04688258  0.36254507    -0.71600
C566        C  0.22167200  0.05949085  0.39206916     0.99200
C567        C  0.24427349  0.12880844  0.22318397     0.95600
Al568      Al  0.19586991  0.12155464  0.25607491     1.55600
O569        O  0.24798145  0.05590935  0.29929254    -0.76200
C570        C  0.15635763  0.09228358  0.30770535     0.99700
C571        C  0.21647853  0.15386022  0.33501429     0.94600
O572        O  0.23392516  0.13667650  0.33234061    -0.81500
O573        O  0.01564070  0.08143881  0.87102809    -0.81000
C574        C  0.06985876  0.08479668  0.05008199     0.98400
O575        O  0.07092071  0.06345435  0.01777925    -0.70100
O576        O  0.03083749  0.04276941  0.99625114    -0.73700
Al577      Al  0.05380488  0.05734914  0.95477169     1.49000
C578        C  0.00963358  0.04392211  0.98802437     0.93600
O579        O  0.00492979  0.12204913  0.99672800    -0.79900
O580        O  0.05656405  0.14404733  0.90692332    -0.73500
Al581      Al  0.01259725  0.10142175  0.93479108     1.90100
O582        O  0.03538453  0.15080548  0.99867016    -0.72500
O583        O  0.08872544  0.10859486  0.94875196    -0.72400
O584        O  0.06370725  0.11089905  0.03695017    -0.78000
O585        O  0.07939531  0.06606140  0.91285165    -0.76200
O586        O  0.04198693  0.09470646  0.95302732    -1.12400
O587        O  0.03776504  0.04337566  0.89429685    -0.71600
C588        C  0.02306637  0.05483287  0.86410908     0.99200
C589        C  0.01498985  0.14541140  0.01256450     0.95600
Al590      Al  0.05966262  0.12579572  0.97091679     1.55600
O591        O  0.00053837  0.06539547  0.96380460    -0.76200
C592        C  0.09432470  0.08539113  0.92360972     0.99700
C593        C  0.03721039  0.15264250  0.88992693     0.94600
O594        O  0.01883953  0.13886505  0.90101537    -0.81500
O595        O  0.23440495  0.05144260  0.87211229    -0.81000
C596        C  0.17885081  0.06007111  0.04783573     0.98400
O597        O  0.17557988  0.07628815  0.00900434    -0.70100
O598        O  0.21560645  0.09448035  0.98453488    -0.73700
Al599      Al  0.19309062  0.07691105  0.94649376     1.49000
C600        C  0.23694510  0.09020599  0.98643098     0.93600
O601        O  0.24308772  0.01146728  0.99969343    -0.79900
O602        O  0.17670254  0.49119792  0.92321094    -0.73500
Al603      Al  0.23504424  0.03190260  0.93740628     1.90100
O604        O  0.20158237  0.48918404  0.01104938    -0.72500
O605        O  0.15849819  0.02647163  0.95576492    -0.72400
O606        O  0.18484920  0.03275255  0.04289223    -0.78000
O607        O  0.16782418  0.06403760  0.90669195    -0.76200
O608        O  0.20543720  0.03988828  0.95386519    -1.12400
O609        O  0.20889272  0.08724912  0.88484040    -0.71600
C610        C  0.22538221  0.07632833  0.85925851     0.99200
C611        C  0.22294912  0.49277271  0.01774511     0.95600
Al612      Al  0.18766413  0.01107910  0.98049295     1.55600
O613        O  0.24663605  0.06724605  0.96762064    -0.76200
C614        C  0.15280516  0.04660838  0.92426725     0.99700
C615        C  0.19468926  0.48189125  0.90065836     0.94600
O616        O  0.21390316  0.49515097  0.90553506    -0.81500
O617        O  0.27683719  0.11623487  0.65337024    -0.81000
C618        C  0.32255063  0.18170676  0.79754279     0.98400
O619        O  0.31629848  0.15475583  0.79118814    -0.70100
O620        O  0.29065582  0.11016437  0.75733495    -0.73700
Al621      Al  0.31495202  0.13444548  0.72814266     1.49000
C622        C  0.26954575  0.11469851  0.76695040     0.93600
O623        O  0.25515375  0.19238803  0.70742157    -0.79900
O624        O  0.29314937  0.21150518  0.63568812    -0.73500
Al625      Al  0.26825159  0.15514914  0.68249686     1.90100
O626        O  0.28515920  0.21730959  0.73571444    -0.72500
O627        O  0.33454036  0.18894579  0.65784701    -0.72400
O628        O  0.32568366  0.19889336  0.75996324    -0.78000
O629        O  0.34424358  0.15084147  0.70601691    -0.76200
O630        O  0.29714425  0.16344725  0.70195993    -1.12400
O631        O  0.31439525  0.11198917  0.66749224    -0.71600
C632        C  0.29614692  0.10280373  0.64670892     0.99200
C633        C  0.26388003  0.21523362  0.72860634     0.95600
Al634      Al  0.30864144  0.20069229  0.69733313     1.55600
O635        O  0.25923057  0.13654973  0.74597450    -0.76200
C636        C  0.34971427  0.17119599  0.67472698     0.99700
C637        C  0.27877110  0.19914300  0.60662541     0.94600
O638        O  0.27138894  0.17296734  0.61634486    -0.81500
O639        O  0.48626839  0.25128754  0.64003483    -0.81000
C640        C  0.43629369  0.18775223  0.78270541     0.98400
O641        O  0.44572409  0.21322830  0.77867899    -0.70100
O642        O  0.47604124  0.25412911  0.74735087    -0.73700
Al643      Al  0.44845461  0.23594938  0.71796355     1.49000
C644        C  0.49646550  0.24416156  0.75222333     0.93600
O645        O  0.50175085  0.17143632  0.67777600    -0.79900
O646        O  0.46183922  0.15968267  0.61409335    -0.73500
Al647      Al  0.49136601  0.21049429  0.66137574     1.90100
O648        O  0.47138869  0.15022305  0.71237490    -0.72500
O649        O  0.42272638  0.18725843  0.64419302    -0.72400
O650        O  0.43255389  0.17190488  0.74364974    -0.78000
O651        O  0.41736437  0.22499373  0.69694102    -0.76200
O652        O  0.46267944  0.20573112  0.68529206    -1.12400
O653        O  0.45014834  0.26144746  0.66118006    -0.71600
C654        C  0.46862048  0.26826392  0.63850983     0.99200
C655        C  0.49238592  0.15000877  0.70077288     0.95600
Al656      Al  0.44828486  0.17053369  0.67870720     1.55600
O657        O  0.50334306  0.22251632  0.72525541    -0.76200
C658        C  0.40940610  0.20589390  0.66576562     0.99700
C659        C  0.47628979  0.17151576  0.58435504     0.94600
O660        O  0.48435594  0.19732790  0.59407163    -0.81500
O661        O  0.27541354  0.26613582  0.08095765    -0.81000
C662        C  0.31643584  0.19123820  0.94038251     0.98400
O663        O  0.30965032  0.21831129  0.94374714    -0.70100
O664        O  0.28431530  0.26529140  0.97545803    -0.73700
Al665      Al  0.31007827  0.24136992  0.00417170     1.49000
C666        C  0.26308310  0.25879424  0.97086405     0.93600
O667        O  0.25036783  0.18889240  0.04904893    -0.79900
O668        O  0.28738591  0.16964605  0.10830663    -0.73500
Al669      Al  0.26552855  0.22630412  0.06246499     1.90100
O670        O  0.27746026  0.16339217  0.00878258    -0.72500
O671        O  0.32964159  0.18768268  0.07858048    -0.72400
O672        O  0.31851743  0.17503894  0.97954562    -0.78000
O673        O  0.33919398  0.22350953  0.02493040    -0.76200
O674        O  0.29279515  0.21503212  0.03725760    -1.12400
O675        O  0.31239632  0.26630828  0.06135050    -0.71600
C676        C  0.29532188  0.27764768  0.08400324     0.99200
C677        C  0.25705166  0.16619690  0.02395233     0.95600
Al678      Al  0.30254118  0.17716658  0.04370969     1.55600
O679        O  0.25430481  0.23905449  0.99875973    -0.76200
C680        C  0.34477422  0.20344266  0.05706127     0.99700
C681        C  0.27620401  0.18617740  0.13919206     0.94600
O682        O  0.27303778  0.21375782  0.12943976    -0.81500
O683        O  0.47577946  0.11475679  0.08155614    -0.81000
C684        C  0.43242829  0.18058221  0.92744831     0.98400
O685        O  0.42829935  0.15305110  0.93683938    -0.70100
O686        O  0.45857988  0.10991736  0.94769687    -0.73700
Al687      Al  0.43681332  0.12728013  0.99309441     1.49000
C688        C  0.47979976  0.10466803  0.95069588     0.93600
O689        O  0.49698614  0.17542567  0.99214201    -0.79900
O690        O  0.45185466  0.19204261  0.10225265    -0.73500
Al691      Al  0.48491283  0.14558339  0.03680906     1.90100
O692        O  0.47350362  0.21112152  0.01834133    -0.72500
O693        O  0.41521649  0.18524319  0.04567259    -0.72400
O694        O  0.43924627  0.19829578  0.96163867    -0.78000
O695        O  0.40969645  0.13771667  0.03214432    -0.76200
O696        O  0.45559821  0.15481687  0.02052483    -1.12400
O697        O  0.44414482  0.09784373  0.04392258    -0.71600
C698        C  0.46009758  0.09529334  0.07676830     0.99200
C699        C  0.49119179  0.20286568  0.99476512     0.95600
Al700      Al  0.44567311  0.19286917  0.03103642     1.55600
O701        O  0.49141952  0.11666661  0.98513508    -0.76200
C702        C  0.40227976  0.16306226  0.04648535     0.99700
C703        C  0.47230535  0.18887217  0.11800222     0.94600
O704        O  0.48649462  0.17253314  0.09358284    -0.81500
C705        C  0.36937005  0.19665901  0.06447908    -0.15600
C706        C  0.37777611  0.16815607  0.06041671    -0.30800
H707        H  0.38099709  0.21567323  0.06169720     0.13400
H708        H  0.36603125  0.14920296  0.05914552     0.14000
C709        C  0.43043918  0.17551125  0.83346085    -0.15600
C710        C  0.43118463  0.19282655  0.87532748    -0.30800
H711        H  0.42743243  0.15145051  0.83685140     0.13400
H712        H  0.43427616  0.21684467  0.87118592     0.14000
C713        C  0.32453142  0.19437787  0.84897516    -0.15600
C714        C  0.32100022  0.17757314  0.89045022    -0.30800
H715        H  0.32639815  0.21865711  0.85259109     0.13400
H716        H  0.31984310  0.15319511  0.88726675     0.14000
C717        C  0.37433518  0.17527907  0.66149695    -0.15600
C718        C  0.38408500  0.20285797  0.66011993    -0.30800
H719        H  0.38541634  0.15538633  0.66261286     0.13400
H720        H  0.37332339  0.22280701  0.66545115     0.14000
C721        C  0.25083645  0.11389393  0.00725072    -0.15600
C722        C  0.24169182  0.14147091  0.01466886    -0.30800
H723        H  0.26929649  0.10971270  0.01075091     0.13400
H724        H  0.22324074  0.14591911  0.01249536     0.14000
C725        C  0.23503475  0.09458836  0.81617508    -0.15600
C726        C  0.25773832  0.09374997  0.80346423    -0.30800
H727        H  0.22404113  0.11183129  0.79941223     0.13400
H728        H  0.26871952  0.07719233  0.82215114     0.14000
C729        C  0.11898076  0.07972990  0.91161586    -0.15600
C730        C  0.12802076  0.05157398  0.91324991    -0.30800
H731        H  0.13050663  0.09892863  0.91238706     0.13400
H732        H  0.11655458  0.03253570  0.91819737     0.14000
C733        C  0.26351200  0.17255183  0.18248775    -0.15600
C734        C  0.26085882  0.14247442  0.18709775    -0.30800
H735        H  0.25359497  0.18752087  0.20709149     0.13400
H736        H  0.27110009  0.12724848  0.16363854     0.14000
C737        C  0.17928831  0.05849563  0.14208252    -0.15600
C738        C  0.17749601  0.07436946  0.09881146    -0.30800
H739        H  0.17861702  0.03402992  0.14057230     0.13400
H740        H  0.17725153  0.09885497  0.10057152     0.14000
C741        C  0.07424560  0.05233639  0.12597268    -0.15600
C742        C  0.07453040  0.07979921  0.10471759    -0.30800
H743        H  0.07308441  0.03256513  0.10171073     0.13400
H744        H  0.07464237  0.09957653  0.12913655     0.14000
C745        C  0.13117537  0.08745134  0.31188003    -0.15600
C746        C  0.12285489  0.05906602  0.31557310    -0.30800
H747        H  0.11956746  0.10604560  0.30287768     0.13400
H748        H  0.13482615  0.04016356  0.31879105     0.14000
C749        C  0.99869666  0.09621805  0.43339373    -0.15600
C750        C  0.02047502  0.09933999  0.41557638    -0.30800
H751        H  0.98851833  0.07756994  0.41911185     0.13400
H752        H  0.03041620  0.11890999  0.42666812     0.14000
C753        C  0.87060839  0.20130886  0.57592782    -0.15600
C754        C  0.88133714  0.17415054  0.57958139    -0.30800
H755        H  0.88091846  0.22156987  0.57273459     0.13400
H756        H  0.87106385  0.15379130  0.57813858     0.14000
C757        C  0.92789114  0.18020791  0.35362814    -0.15600
C758        C  0.92682423  0.19685998  0.39587773    -0.30800
H759        H  0.92865278  0.15576083  0.35622165     0.13400
H760        H  0.92535556  0.22125753  0.39326597     0.14000
C761        C  0.00575552  0.13961914  0.23725530    -0.15600
C762        C  0.99622438  0.11216736  0.24248088    -0.30800
H763        H  0.02436499  0.14253428  0.23666780     0.13400
H764        H  0.97762596  0.10921753  0.24369906     0.14000
C765        C  0.00360427  0.16696494  0.04814192    -0.15600
C766        C  0.98166307  0.16432314  0.06416937    -0.30800
H767        H  0.01422313  0.18469462  0.06410222     0.13400
H768        H  0.97135029  0.14570360  0.05031837     0.14000
C769        C  0.82365662  0.18458912  0.35085940    -0.15600
C770        C  0.82140220  0.16758784  0.39266871    -0.30800
H771        H  0.82651663  0.20867823  0.35457780     0.13400
H772        H  0.81855886  0.14350128  0.38872136     0.14000
C773        C  0.87205356  0.16704356  0.17294816    -0.15600
C774        C  0.87942954  0.19580091  0.17140045    -0.30800
H775        H  0.88433936  0.14871818  0.17875046     0.13400
H776        H  0.86698428  0.21428466  0.17208711     0.14000
C777        C  0.45262837  0.31663868  0.60976478    -0.15600
C778        C  0.47017149  0.29679411  0.61083149    -0.30800
H779        H  0.43630543  0.31149783  0.62807900     0.13400
H780        H  0.48608035  0.30149825  0.59046012     0.14000
C781        C  0.28309309  0.05204831  0.62543068    -0.15600
C782        C  0.29750777  0.07499917  0.61647740    -0.30800
H783        H  0.26970605  0.05454976  0.65413802     0.13400
H784        H  0.31175501  0.07230610  0.58996133     0.14000
C785        C  0.25293285  0.03242774  0.43420846    -0.15600
C786        C  0.23075557  0.04209749  0.43564626    -0.30800
H787        H  0.26387848  0.03984273  0.40314096     0.13400
H788        H  0.21892364  0.03356912  0.46409228     0.14000
C789        C  0.37080439  0.44915583  0.55902621    -0.15600
C790        C  0.37766684  0.42006507  0.55862710    -0.30800
H791        H  0.38341791  0.46701229  0.55510337     0.13400
H792        H  0.36497309  0.40220593  0.55630872     0.14000
C793        C  0.44906758  0.04361931  0.09968943    -0.15600
C794        C  0.46166473  0.06822248  0.10864760    -0.30800
H795        H  0.43543443  0.04386785  0.07146782     0.13400
H796        H  0.47462421  0.06772117  0.13844827     0.14000
C797        C  0.42743731  0.41217464  0.32760029    -0.15600
C798        C  0.42233338  0.42878758  0.36886983    -0.30800
H799        H  0.43209599  0.38853073  0.33195322     0.13400
H800        H  0.41798998  0.45253142  0.36456694     0.14000
C801        C  0.28308914  0.32767329  0.10873954    -0.15600
C802        C  0.29856211  0.30535903  0.11267022    -0.30800
H803        H  0.26841248  0.32530071  0.08339072     0.13400
H804        H  0.31409169  0.30793974  0.13525523     0.14000
C805        C  0.23823685  0.48245091  0.24924166    -0.15600
C806        C  0.25139339  0.00714648  0.26897944    -0.30800
H807        H  0.22037966  0.47744233  0.25846627     0.13400
H808        H  0.27004843  0.00940393  0.26640265     0.14000
C809        C  0.25837970  0.46846836  0.05747276    -0.15600
C810        C  0.23517467  0.47168064  0.05279724    -0.30800
H811        H  0.26980206  0.48205932  0.03435645     0.13400
H812        H  0.22407230  0.45791134  0.07641979     0.14000
C813        C  0.32309763  0.43797029  0.37506836    -0.15600
C814        C  0.31884528  0.45508436  0.33407401    -0.30800
H815        H  0.32658518  0.41400795  0.37041622     0.13400
H816        H  0.31498149  0.47893509  0.33907666     0.14000
C817        C  0.36632521  0.42292791  0.15029029    -0.15600
C818        C  0.37761802  0.44956308  0.15157365    -0.30800
H819        H  0.37622603  0.40200926  0.14951764     0.13400
H820        H  0.36776315  0.47042791  0.15500687     0.14000
C821        C  0.50727651  0.39671894  0.04578120    -0.15600
C822        C  0.48419063  0.40208884  0.04766688    -0.30800
H823        H  0.51844503  0.40867001  0.07193026     0.13400
H824        H  0.47265468  0.39022213  0.02225748     0.14000
C825        C  0.50514992  0.22658036  0.97318438    -0.15600
C826        C  0.49646502  0.25490557  0.97095531    -0.30800
H827        H  0.52289982  0.22149344  0.96254775     0.13400
H828        H  0.47835100  0.25982977  0.97827721     0.14000
C829        C  0.51442695  0.28702496  0.79853720    -0.15600
C830        C  0.51257118  0.25713694  0.79025079    -0.30800
H831        H  0.50394156  0.30239135  0.77601421     0.13400
H832        H  0.52342637  0.24156173  0.81145146     0.14000
C833        C  0.63199986  0.28553463  0.90186960    -0.15600
C834        C  0.62282195  0.31352993  0.90118886    -0.30800
H835        H  0.62066474  0.26627699  0.90587263     0.13400
H836        H  0.63419637  0.33283601  0.90375586     0.14000
C837        C  0.74897540  0.20857624  0.04795487    -0.15600
C838        C  0.77164442  0.20970648  0.05914407    -0.30800
H839        H  0.73842720  0.19178599  0.06679638     0.13400
H840        H  0.78221521  0.22741344  0.04309004     0.14000
C841        C  0.49788864  0.35366257  0.22951964    -0.15600
C842        C  0.50644751  0.38188039  0.22923993    -0.30800
H843        H  0.48006227  0.34921100  0.21938596     0.13400
H844        H  0.52379173  0.38657141  0.24255194     0.14000
C845        C  0.51425609  0.32897094  0.41219816    -0.15600
C846        C  0.49153325  0.32868394  0.42325622    -0.30800
H847        H  0.52506142  0.34629149  0.42872917     0.13400
H848        H  0.48066551  0.31215674  0.40466334     0.14000
C849        C  0.48080687  0.20708141  0.16135500    -0.15600
C850        C  0.50372133  0.20963418  0.16874689    -0.30800
H851        H  0.46870081  0.22028864  0.18394449     0.13400
H852        H  0.51550200  0.19621036  0.14561576     0.14000
C853        C  0.57407981  0.28990247  0.08704304    -0.15600
C854        C  0.57493307  0.30587121  0.13052446    -0.30800
H855        H  0.57326560  0.26545318  0.08859320     0.13400
H856        H  0.57644291  0.33025583  0.12865580     0.14000
C857        C  0.67683024  0.29177672  0.13315702    -0.15600
C858        C  0.67552952  0.30777881  0.09007124    -0.30800
H859        H  0.67838127  0.26736009  0.13130966     0.13400
H860        H  0.67328266  0.33211016  0.09213311     0.14000
C861        C  0.62673635  0.31174385  0.31945020    -0.15600
C862        C  0.61860385  0.28343761  0.31882787    -0.30800
H863        H  0.61473724  0.33068613  0.31730386     0.13400
H864        H  0.63052551  0.26454260  0.31442036     0.14000
C865        C  0.73210937  0.28178015  0.42230276    -0.15600
C866        C  0.75507239  0.27575506  0.42330145    -0.30800
H867        H  0.72075283  0.27110669  0.44958055     0.13400
H868        H  0.76584404  0.28494743  0.39335655     0.14000
C869        C  0.74708616  0.23229520  0.23467249    -0.15600
C870        C  0.75534947  0.25995528  0.24376331    -0.30800
H871        H  0.72866615  0.22779601  0.23429701     0.13400
H872        H  0.77376236  0.26446733  0.24389107     0.14000
C873        C  0.55232916  0.16465082  0.35840239    -0.15600
C874        C  0.53509337  0.18494398  0.35519359    -0.30800
H875        H  0.56926900  0.16974739  0.34304392     0.13400
H876        H  0.51848422  0.18007519  0.37248745     0.14000
C877        C  0.50915653  0.14858694  0.53801370    -0.15600
C878        C  0.48602638  0.15262141  0.54236060    -0.30800
H879        H  0.52033141  0.16228956  0.56160109     0.13400
H880        H  0.47451634  0.13802283  0.52132931     0.14000
C881        C  0.51799824  0.02660610  0.29462360    -0.15600
C882        C  0.49507294  0.02844068  0.28438462    -0.30800
H883        H  0.52830203  0.00914057  0.27626551     0.13400
H884        H  0.48472278  0.04495718  0.30501967     0.14000
C885        C  0.50050912  0.47712263  0.47447844    -0.15600
C886        C  0.49740988  0.00329561  0.47959265    -0.30800
H887        H  0.51907312  0.47366355  0.47183618     0.13400
H888        H  0.47994666  0.00986051  0.49028205     0.14000
C889        C  0.71055061  0.43584788  0.37333974    -0.15600
C890        C  0.69309526  0.41737001  0.36367026    -0.30800
H891        H  0.72776338  0.43050732  0.35920038     0.13400
H892        H  0.67564284  0.42288469  0.37593769     0.14000
C893        C  0.63494754  0.03352973  0.40440658    -0.15600
C894        C  0.62526125  0.06123757  0.40279752    -0.30800
H895        H  0.62396185  0.01399921  0.40923729     0.13400
H896        H  0.63630019  0.08088979  0.40502031     0.14000
C897        C  0.74655837  0.09773840  0.29690486    -0.15600
C898        C  0.74400447  0.06770962  0.30161468    -0.30800
H899        H  0.73589947  0.11273061  0.31991008     0.13400
H900        H  0.75447149  0.05272495  0.27817151     0.14000
C901        C  0.75608420  0.10817206  0.47369125    -0.15600
C902        C  0.74590490  0.13534050  0.48008691    -0.30800
H903        H  0.77443046  0.10474578  0.48038769     0.13400
H904        H  0.72791212  0.13928053  0.47035148     0.14000
C905        C  0.53238153  0.43890160  0.86114499    -0.15600
C906        C  0.55047837  0.42015007  0.86663262    -0.30800
H907        H  0.51583328  0.43333189  0.87809613     0.13400
H908        H  0.56729808  0.42591310  0.85131692     0.14000
C909        C  0.49561049  0.09754845  0.72145919    -0.15600
C910        C  0.50594843  0.12378675  0.71220959    -0.30800
H911        H  0.47693371  0.09535056  0.72083438     0.13400
H912        H  0.52461825  0.12610430  0.71290277     0.14000
C913        C  0.51357267  0.07964294  0.90835936    -0.15600
C914        C  0.49060339  0.08357181  0.91372878    -0.30800
H915        H  0.52541530  0.09333499  0.93023688     0.13400
H916        H  0.47909664  0.07150106  0.88841245     0.14000
C917        C  0.57366926  0.05146746  0.62751323    -0.15600
C918        C  0.57274667  0.03570457  0.58393291    -0.30800
H919        H  0.57573042  0.07578012  0.62561858     0.13400
H920        H  0.57139207  0.01130037  0.58525915     0.14000
C921        C  0.47958654  0.45793890  0.65348779    -0.15600
C922        C  0.50185217  0.45711851  0.66804467    -0.30800
H923        H  0.46821161  0.47536337  0.66863190     0.13400
H924        H  0.51334616  0.44065550  0.65039185     0.14000
C925        C  0.71581186  0.18854095  0.86180642    -0.15600
C926        C  0.69859841  0.16859436  0.86016024    -0.30800
H927        H  0.73203507  0.18367859  0.84249878     0.13400
H928        H  0.68206795  0.17370202  0.87792132     0.14000
C929        C  0.67480923  0.04880351  0.62705025    -0.15600
C930        C  0.67737085  0.06544342  0.58485147    -0.30800
H931        H  0.67398846  0.02438515  0.62393987     0.13400
H932        H  0.67743128  0.08990747  0.58711535     0.14000
C933        C  0.62488543  0.06394628  0.81187893    -0.15600
C934        C  0.61714337  0.03535491  0.81457541    -0.30800
H935        H  0.61260661  0.08241017  0.80729314     0.13400
H936        H  0.62936355  0.01664304  0.81298843     0.14000
C937        C  0.74090557  0.14990386  0.67789351    -0.15600
C938        C  0.76403481  0.15322783  0.67246509    -0.30800
H939        H  0.72948616  0.16361042  0.65457102     0.13400
H940        H  0.77579995  0.13979229  0.69534540     0.14000
C941        C  0.20174305  0.20161598  0.36965202    -0.15600
C942        C  0.21910501  0.18208521  0.36297778    -0.30800
H943        H  0.18455727  0.19654375  0.35575953     0.13400
H944        H  0.23592859  0.18670662  0.37935643     0.14000
C945        C  0.24631605  0.21779498  0.55386269    -0.15600
C946        C  0.26920268  0.21729775  0.56369356    -0.30800
H947        H  0.23535967  0.20217341  0.57434161     0.13400
H948        H  0.28022315  0.23391522  0.54588566     0.14000
C949        C  0.25595306  0.34596042  0.30815149    -0.15600
C950        C  0.23358818  0.33744463  0.31017227    -0.30800
H951        H  0.26736141  0.33896307  0.33873136     0.13400
H952        H  0.22142129  0.34583540  0.28217777     0.14000
C953        C  0.25612120  0.36371390  0.48587818    -0.15600
C954        C  0.24653485  0.39140766  0.49039112    -0.30800
H955        H  0.27471548  0.36028340  0.48668233     0.13400
H956        H  0.22794058  0.39486032  0.48994424     0.14000
C957        C  0.04856200  0.43189945  0.36400027    -0.15600
C958        C  0.03266792  0.45388378  0.36677846    -0.30800
H959        H  0.06465216  0.43541879  0.34367111     0.13400
H960        H  0.01695275  0.45035038  0.38855412     0.14000
C961        C  0.13064134  0.30209218  0.41537615    -0.15600
C962        C  0.12163367  0.32996076  0.41138030    -0.30800
H963        H  0.11920764  0.28301717  0.42054685     0.13400
H964        H  0.13295418  0.34936768  0.41284562     0.14000
C965        C  0.99388452  0.28766492  0.30228364    -0.15600
C966        C  0.01697711  0.28912977  0.30967350    -0.30800
H967        H  0.98285557  0.30330936  0.32316594     0.13400
H968        H  0.02810938  0.27252556  0.29138479     0.14000
C969        C  0.99529626  0.26987968  0.48613898    -0.15600
C970        C  0.00404763  0.24181144  0.48992742    -0.30800
H971        H  0.97701185  0.27456072  0.49161163     0.13400
H972        H  0.02232356  0.23730811  0.48375437     0.14000
C973        C  0.21255891  0.43708820  0.86316094    -0.15600
C974        C  0.19355477  0.45409150  0.87047713    -0.30800
H975        H  0.22902184  0.44432694  0.87847590     0.13400
H976        H  0.17686580  0.44661724  0.85684233     0.14000
C977        C  0.17949162  0.32498298  0.60164324    -0.15600
C978        C  0.17967989  0.30923068  0.64514088    -0.30800
H979        H  0.17915600  0.34947946  0.60305362     0.13400
H980        H  0.17936057  0.28474283  0.64387369     0.14000
C981        C  0.25898807  0.26884590  0.74669418    -0.15600
C982        C  0.24952336  0.24121890  0.74187602    -0.30800
H983        H  0.27751258  0.27200600  0.74356611     0.13400
H984        H  0.23099158  0.23805786  0.74475549     0.14000
C985        C  0.24677139  0.30310310  0.92412140    -0.15600
C986        C  0.24802469  0.27314441  0.93198863    -0.30800
H987        H  0.25764952  0.31786501  0.94649850     0.13400
H988        H  0.23675889  0.25838096  0.91059724     0.20400
C989        C  0.24698127  0.41373846  0.67681356    -0.15600
C990        C  0.26955665  0.41258515  0.66466657    -0.30800
H991        H  0.23595423  0.43027532  0.65816206     0.13400
H992        H  0.28052901  0.39509136  0.68075029     0.14000
C993        C  0.03545365  0.18060292  0.86058167    -0.15600
C994        C  0.05237659  0.20099692  0.86147734    -0.30800
H995        H  0.01936596  0.18556870  0.84099655     0.13400
H996        H  0.06865582  0.19595113  0.88019704     0.14000
C997        C  0.07473047  0.31056185  0.59574259    -0.15600
C998        C  0.07595740  0.32713626  0.63842901    -0.30800
H999        H  0.07523839  0.28610513  0.59830846     0.13400
H1000       H  0.07616596  0.35159112  0.63606659     0.14000
C1001       C  0.12713422  0.30338958  0.82230080    -0.15600
C1002       C  0.13542715  0.33118648  0.83129663    -0.30800
H1003       H  0.13914490  0.28521379  0.81301383     0.13400
H1004       H  0.12348203  0.35015017  0.83409278     0.14000
C1005       C  0.01137833  0.22086065  0.68180523    -0.15600
C1006       C  0.98833360  0.21999196  0.67393059    -0.30800
H1007       H  0.02237674  0.20522196  0.66084250     0.13400
H1008       H  0.97724248  0.23637597  0.69289609     0.14000
C1009       C  0.94936206  0.30146919  0.12108252    -0.15600
C1010       C  0.96346218  0.32493184  0.12670880    -0.30800
H1011       H  0.93480802  0.30243723  0.09517740     0.13400
H1012       H  0.97712264  0.32409600  0.15495803     0.14000
C1013       C  0.00282426  0.47278523  0.17838895    -0.15600
C1014       C  0.98007071  0.46760957  0.17144302    -0.30800
H1015       H  0.01523585  0.46003937  0.15576895     0.13400
H1016       H  0.96731321  0.48006470  0.19351209     0.14000
C1017       C  0.00334619  0.48139024  0.98309093    -0.15600
C1018       C  0.99569999  0.01875249  0.00430813    -0.30800
H1019       H  0.02183173  0.47864808  0.97745149     0.13400
H1020       H  0.97768606  0.02330708  0.01327010     0.14000
C1021       C  0.02012470  0.33780404  0.92740043    -0.15600
C1022       C  0.99686279  0.33997751  0.93093334    -0.30800
H1023       H  0.03088675  0.35157391  0.95172252     0.13400
H1024       H  0.98643386  0.32812768  0.90316868     0.14000
C1025       C  0.79527445  0.06724738  0.11474719    -0.15600
C1026       C  0.77887346  0.04616934  0.11725748    -0.30800
H1027       H  0.81094276  0.06326003  0.09291261     0.13400
H1028       H  0.76404124  0.04952921  0.14206353     0.14000
C1029       C  0.75114866  0.02277807  0.91964986    -0.15600
C1030       C  0.72833688  0.02924820  0.91700623    -0.30800
H1031       H  0.76244838  0.03147191  0.89020667     0.13400
H1032       H  0.71640037  0.01918451  0.94374879     0.14000
C1033       C  0.86796539  0.44173921  0.07495210    -0.15600
C1034       C  0.87810194  0.41422464  0.07168394    -0.30800
H1035       H  0.87856511  0.46182429  0.07427704     0.13400
H1036       H  0.86752298  0.39422518  0.06810946     0.14000
C1037       C  0.76245244  0.40402940  0.17495571    -0.15600
C1038       C  0.73932946  0.40254683  0.18161545    -0.30800
H1039       H  0.77356649  0.38814087  0.19480589     0.13400
H1040       H  0.72830955  0.41729088  0.15913394     0.14000
C1041       C  0.75228057  0.35413603  0.99511789    -0.15600
C1042       C  0.74274452  0.38184926  0.99828427    -0.30800
H1043       H  0.77064798  0.35039901  0.00110502     0.13400
H1044       H  0.72437598  0.38573249  0.99271888     0.14000
C1045       C  0.96517685  0.07665077  0.62210554    -0.15600
C1046       C  0.94756058  0.05729202  0.62518076    -0.30800
H1047       H  0.98143641  0.07143120  0.64080277     0.13400
H1048       H  0.93099251  0.06280368  0.60813687     0.14000
C1049       C  0.99075987  0.03941749  0.80806178    -0.15600
C1050       C  0.01298469  0.03572183  0.82300400    -0.30800
H1051       H  0.97781081  0.54488232  0.83667081     0.13400
H1052       H  0.02276549  0.01623071  0.80977072     0.14000
C1053       C  0.92812881  0.42592614  0.84606669    -0.15600
C1054       C  0.92692866  0.44360795  0.88764413    -0.30800
H1055       H  0.93005236  0.40168494  0.85065986     0.13400
H1056       H  0.92630416  0.46795281  0.88307203     0.14000
C1057       C  0.98229873  0.41306257  0.55854858    -0.15600
C1058       C  0.00524081  0.41228994  0.54876420    -0.30800
H1059       H  0.97068857  0.39856276  0.53758510     0.13400
H1060       H  0.01654103  0.42675106  0.57068446     0.14000
C1061       C  0.00819911  0.39571529  0.74539789    -0.15600
C1062       C  0.00059644  0.36696967  0.74778117    -0.30800
H1063       H  0.02563336  0.40158619  0.75658829     0.13400
H1064       H  0.98280216  0.36135004  0.73921535     0.14000
C1065       C  0.80010958  0.31762942  0.61416021    -0.15600
C1066       C  0.78526201  0.29480283  0.61953948    -0.30800
H1067       H  0.81508035  0.31540818  0.58949382     0.13400
H1068       H  0.77113696  0.29680011  0.64662727     0.14000
C1069       C  0.76471596  0.45766272  0.56592470    -0.15600
C1070       C  0.74171396  0.45786469  0.55898887    -0.30800
H1071       H  0.77524726  0.47437215  0.54693666     0.13400
H1072       H  0.73122847  0.44196956  0.58007050     0.14000
C1073       C  0.74284189  0.47664089  0.74277009    -0.15600
C1074       C  0.75038959  0.00287928  0.74401913    -0.30800
H1075       H  0.72456425  0.47146367  0.74502678     0.13400
H1076       H  0.76900530  0.00567124  0.74442522     0.14000
C1077       C  0.82300827  0.43864364  0.84831936    -0.15600
C1078       C  0.82182866  0.42173616  0.89025902    -0.30800
H1079       H  0.82337518  0.46306696  0.85164156     0.13400
H1080       H  0.82206276  0.39729650  0.88719739     0.14000
C1081       C  0.86994222  0.42514546  0.65865373    -0.15600
C1082       C  0.87821857  0.45341723  0.66239815    -0.30800
H1083       H  0.88176310  0.40598457  0.65838058     0.13400
H1084       H  0.86640160  0.47244401  0.66646434     0.14000
C1085       C  0.73666457  0.33186100  0.81014656    -0.15600
C1086       C  0.75954418  0.33285616  0.80052683    -0.30800
H1087       H  0.72519836  0.34799354  0.79186715     0.13400
H1088       H  0.77098199  0.31762916  0.82100462     0.14000
O1089       O  0.77384403  0.85081046  0.66268171    -0.81000
C1090       C  0.81766531  0.92127512  0.80317146     0.98400
O1091       O  0.81253165  0.89388041  0.79685689    -0.70100
O1092       O  0.78833323  0.84750936  0.76336663    -0.73700
Al1093     Al  0.81144193  0.87352058  0.73335055     1.49000
C1094       C  0.76699369  0.85089480  0.77255760     0.93600
O1095       O  0.74826057  0.92615014  0.70895077    -0.79900
O1096       O  0.78242421  0.94815187  0.64302601    -0.73500
Al1097     Al  0.76377370  0.88927071  0.68824894     1.90100
O1098       O  0.77617298  0.95091125  0.74582109    -0.72500
O1099       O  0.82606834  0.93084361  0.66289339    -0.72400
O1100       O  0.81849493  0.93900670  0.76562699    -0.78000
O1101       O  0.83906381  0.89341482  0.70953389    -0.76200
O1102       O  0.79181441  0.90049880  0.70816145    -1.12400
O1103       O  0.81165973  0.85074538  0.67230938    -0.71600
C1104       C  0.79361263  0.83954605  0.65352839     0.99200
C1105       C  0.75549974  0.94893098  0.73289494     0.95600
Al1106     Al  0.80014997  0.93894411  0.70425094     1.55600
O1107       O  0.75583771  0.87223538  0.75220511    -0.76200
C1108       C  0.84263322  0.91513992  0.67940839     0.99700
C1109       C  0.77080087  0.93211693  0.61256393     0.94600
O1110       O  0.76780871  0.90454104  0.62167210    -0.81500
O1111       O  0.97206235  0.50479704  0.63540582    -0.81000
C1112       C  0.92486333  0.95344918  0.81215820     0.98400
O1113       O  0.93131570  0.98011872  0.80393096    -0.70100
O1114       O  0.95854195  0.50729193  0.77671974    -0.73700
Al1115     Al  0.93194687  0.99895617  0.73921915     1.49000
C1116       C  0.97883599  0.51574219  0.76934464     0.93600
O1117       O  0.99190470  0.94156246  0.71285312    -0.79900
O1118       O  0.95387308  0.92033721  0.65022671    -0.73500
Al1119     Al  0.97794512  0.97820170  0.68957677     1.90100
O1120       O  0.96333006  0.91800696  0.75039492    -0.72500
O1121       O  0.91312670  0.94268052  0.67288450    -0.72400
O1122       O  0.92228084  0.93521638  0.77563858    -0.78000
O1123       O  0.90253095  0.98127295  0.71946534    -0.76200
O1124       O  0.94973585  0.96985502  0.71314179    -1.12400
O1125       O  0.94308883  0.52278873  0.68194862    -0.71600
C1126       C  0.95656527  0.52445377  0.64408688     0.99200
C1127       C  0.98419136  0.91966261  0.73805667     0.95600
Al1128     Al  0.93901135  0.93238709  0.71211089     1.55600
O1129       O  0.98798946  0.99675375  0.75159963    -0.76200
C1130       C  0.89753849  0.95991894  0.68943781     0.99700
C1131       C  0.96634711  0.93311685  0.61763338     0.94600
O1132       O  0.97286286  0.96003037  0.62435141    -0.81500
O1133       O  0.77274199  0.50425964  0.08585838    -0.81000
C1134       C  0.81400384  0.93007116  0.94727842     0.98400
O1135       O  0.81637419  0.95806111  0.95487361    -0.70100
O1136       O  0.78541665  0.50855797  0.97794927    -0.73700
Al1137     Al  0.80492498  0.98492488  0.00647644     1.49000
C1138       C  0.76399130  0.50543767  0.97139155     0.93600
O1139       O  0.74593185  0.93502283  0.00695358    -0.79900
O1140       O  0.78926512  0.92184562  0.12035473    -0.73500
Al1141     Al  0.75698816  0.96621076  0.05019527     1.90100
O1142       O  0.77047712  0.90067114  0.03405133    -0.72500
O1143       O  0.82794057  0.93057384  0.06761656    -0.72400
O1144       O  0.80644264  0.91302816  0.98158728    -0.78000
O1145       O  0.83111917  0.97814746  0.04938990    -0.76200
O1146       O  0.78673133  0.95737949  0.03564119    -1.12400
O1147       O  0.80986741  0.50704660  0.06657919    -0.71600
C1148       C  0.79239073  0.51662464  0.09023313     0.99200
C1149       C  0.75222084  0.90781001  0.01141340     0.95600
Al1150     Al  0.79766211  0.92020734  0.04975082     1.55600
O1151       O  0.75065875  0.99423657  0.99668051    -0.76200
C1152       C  0.83968692  0.95407767  0.06647594     0.99700
C1153       C  0.76831713  0.92410770  0.13365713     0.94600
O1154       O  0.75457397  0.94005937  0.10778047    -0.81500
O1155       O  0.97409403  0.87525692  0.10412985    -0.81000
C1156       C  0.92932088  0.94610933  0.95672225     0.98400
O1157       O  0.92634418  0.91818335  0.96365917    -0.70100
O1158       O  0.95754355  0.87599039  0.96760826    -0.73700
Al1159     Al  0.93576719  0.89079271  0.01578755     1.49000
C1160       C  0.97854041  0.86936564  0.97119397     0.93600
O1161       O  0.99613543  0.93841700  0.01941654    -0.79900
O1162       O  0.95221261  0.95265229  0.13190553    -0.73500
Al1163     Al  0.98377171  0.90715432  0.06145177     1.90100
O1164       O  0.97217005  0.97347172  0.04685408    -0.72500
O1165       O  0.91344907  0.94624394  0.07677874    -0.72400
O1166       O  0.93655589  0.96286771  0.99193388    -0.78000
O1167       O  0.90915981  0.89916052  0.05619335    -0.76200
O1168       O  0.95443335  0.91739354  0.04613923    -1.12400
O1169       O  0.94310856  0.85959050  0.06281065    -0.71600
C1170       C  0.95818513  0.85626095  0.09717999     0.99200
C1171       C  0.99032190  0.96587269  0.02412614     0.95600
Al1172     Al  0.94438195  0.95502010  0.06071921     1.55600
O1173       O  0.98999571  0.87918898  0.00781486    -0.76200
C1174       C  0.90098032  0.92347546  0.07315902     0.99700
C1175       C  0.97297232  0.94878380  0.14590274     0.94600
O1176       O  0.98634153  0.93244420  0.11969530    -0.81500
O1177       O  0.01378623  0.79828661  0.87686358    -0.81000
C1178       C  0.06399752  0.80955236  0.69295336     0.98400
O1179       O  0.06683956  0.82597857  0.73168080    -0.70100
O1180       O  0.02602119  0.84349001  0.75750324    -0.73700
Al1181     Al  0.04979446  0.82682995  0.79469672     1.49000
C1182       C  0.00478543  0.84098288  0.76566637     0.93600
O1183       O  0.99975975  0.76296199  0.74868280    -0.79900
O1184       O  0.05572995  0.73784824  0.81976394    -0.73500
Al1185     Al  0.00972565  0.78120910  0.81095168     1.90100
O1186       O  0.03149410  0.73818374  0.73155785    -0.72500
O1187       O  0.08503374  0.77677360  0.78283757    -0.72400
O1188       O  0.05726926  0.78266295  0.69776603    -0.78000
O1189       O  0.07549537  0.81409080  0.83338976    -0.76200
O1190       O  0.03829417  0.78975333  0.78911828    -1.12400
O1191       O  0.03467835  0.83739226  0.85691500    -0.71600
C1192       C  0.02102443  0.82438946  0.88673729     0.99200
C1193       C  0.01014938  0.74213333  0.72522329     0.95600
Al1194     Al  0.05589678  0.76126676  0.76047538     1.55600
O1195       O  0.99639253  0.81819803  0.78746266    -0.76200
C1196       C  0.09041233  0.79603121  0.81600018     0.99700
C1197       C  0.03804160  0.72932063  0.84346715     0.94600
O1198       O  0.01869120  0.74273979  0.83886956    -0.81500
O1199       O  0.22400855  0.83337433  0.88134419    -0.81000
C1200       C  0.17539488  0.82033424  0.69546900     0.98400
O1201       O  0.17331857  0.80331652  0.73357445    -0.70100
O1202       O  0.21469942  0.78872937  0.75876885    -0.73700
Al1203     Al  0.19016520  0.80293479  0.79649841     1.49000
C1204       C  0.23566173  0.79136240  0.76960804     0.93600
O1205       O  0.23823651  0.86875837  0.75334670    -0.79900
O1206       O  0.18096655  0.89125033  0.82402865    -0.73500
Al1207     Al  0.22840530  0.85057150  0.81558695     1.90100
O1208       O  0.20610083  0.89271577  0.73639145    -0.72500
O1209       O  0.15340277  0.85098830  0.78590858    -0.72400
O1210       O  0.18159470  0.84738170  0.70099671    -0.78000
O1211       O  0.16376438  0.81347626  0.83516818    -0.76200
O1212       O  0.20031796  0.84063051  0.79263428    -1.12400
O1213       O  0.20550083  0.79273450  0.85833956    -0.71600
C1214       C  0.21831586  0.80633309  0.88919475     0.99200
C1215       C  0.22753661  0.88926429  0.72993622     0.95600
Al1216     Al  0.18204747  0.86827845  0.76428776     1.55600
O1217       O  0.24321988  0.81402600  0.79323395    -0.76200
C1218       C  0.14845782  0.83111060  0.81831928     0.99700
C1219       C  0.19835607  0.90142760  0.84657987     0.94600
O1220       O  0.21813233  0.88899526  0.84245841    -0.81500
O1221       O  0.00568007  0.83375096  0.37661289    -0.81000
C1222       C  0.06273704  0.82182344  0.54880807     0.98400
O1223       O  0.06507494  0.80598078  0.50897156    -0.70100
O1224       O  0.02542505  0.78727133  0.48193108    -0.73700
Al1225     Al  0.04766130  0.80683647  0.44623756     1.49000
C1226       C  0.00409085  0.79115968  0.48484503     0.93600
O1227       O  0.99805726  0.87091608  0.50631268    -0.79900
O1228       O  0.05062747  0.89642799  0.42733349    -0.73500
Al1229     Al  0.00562069  0.85175376  0.44271169     1.90100
O1230       O  0.02989320  0.89525156  0.51805531    -0.72500
O1231       O  0.08226834  0.85663131  0.46024538    -0.72400
O1232       O  0.05609465  0.84904538  0.54606330    -0.78000
O1233       O  0.07234579  0.82140752  0.40715503    -0.76200
O1234       O  0.03520566  0.84339981  0.45744361    -1.12400
O1235       O  0.03200624  0.79845946  0.38418977    -0.71600
C1236       C  0.01501636  0.80965580  0.36102077     0.99200
C1237       C  0.00887126  0.89193377  0.52746420     0.95600
Al1238     Al  0.05314535  0.87173063  0.48519145     1.55600
O1239       O  0.99422106  0.81526246  0.47088453    -0.76200
C1240       C  0.08758240  0.83761189  0.42655966     0.99700
C1241       C  0.03184576  0.90458950  0.40654871     0.94600
O1242       O  0.01328771  0.88976119  0.41188937    -0.81500
O1243       O  0.22346882  0.79466851  0.37054919    -0.81000
C1244       C  0.17244416  0.81007829  0.55107199     0.98400
O1245       O  0.16941447  0.82646478  0.51213800    -0.70100
O1246       O  0.20935598  0.84294367  0.48256453    -0.73700
Al1247     Al  0.18578438  0.82559225  0.44768673     1.49000
C1248       C  0.23065064  0.83873709  0.47904496     0.93600
O1249       O  0.23416898  0.75997744  0.50069640    -0.79900
O1250       O  0.17838424  0.73771102  0.42510189    -0.73500
Al1251     Al  0.22565137  0.77807739  0.43699991     1.90100
O1252       O  0.20240470  0.73538959  0.51325086    -0.72500
O1253       O  0.14965562  0.77824207  0.46391165    -0.72400
O1254       O  0.17838337  0.78267349  0.54650899    -0.78000
O1255       O  0.15994601  0.81301165  0.41022214    -0.76200
O1256       O  0.19697177  0.78828530  0.45591158    -1.12400
O1257       O  0.20092960  0.83373363  0.38441526    -0.71600
C1258       C  0.21590383  0.82028536  0.35773750     0.99200
C1259       C  0.22358374  0.73874138  0.52187336     0.95600
Al1260     Al  0.17874563  0.76088934  0.48464597     1.55600
O1261       O  0.23926706  0.81465907  0.46109451    -0.76200
C1262       C  0.14452682  0.79723899  0.43011422     0.99700
C1263       C  0.19624400  0.72772990  0.40302851     0.94600
O1264       O  0.21595408  0.73982526  0.40894207    -0.81500
O1265       O  0.72408389  0.56984421  0.87348477    -0.81000
C1266       C  0.67346976  0.55628388  0.68944523     0.98400
O1267       O  0.67184680  0.53909975  0.72761361    -0.70100
O1268       O  0.71345375  0.52493733  0.75274522    -0.73700
Al1269     Al  0.68893658  0.53912379  0.79078699     1.49000
C1270       C  0.73451018  0.52917673  0.76067792     0.93600
O1271       O  0.73508387  0.60753489  0.74545596    -0.79900
O1272       O  0.67845974  0.62746798  0.81915684    -0.73500
Al1273     Al  0.72659291  0.58805013  0.80761729     1.90100
O1274       O  0.70221287  0.63000840  0.73030917    -0.72500
O1275       O  0.65119307  0.58624804  0.78160993    -0.72400
O1276       O  0.67869804  0.58368090  0.69534400    -0.78000
O1277       O  0.66253305  0.54898575  0.83018776    -0.76200
O1278       O  0.69841403  0.57722564  0.78636189    -1.12400
O1279       O  0.70485473  0.52941411  0.85274023    -0.71600
C1280       C  0.71834989  0.54291578  0.88244992     0.99200
C1281       C  0.72363519  0.62777449  0.72312019     0.95600
Al1282     Al  0.67926260  0.60446030  0.75905268     1.55600
O1283       O  0.74176024  0.55253382  0.78278949    -0.76200
C1284       C  0.64682952  0.56627118  0.81417339     0.99700
C1285       C  0.69595119  0.63780185  0.84137764     0.94600
O1286       O  0.71578425  0.62562554  0.83647689    -0.81500
O1287       O  0.50683638  0.53690227  0.85587053    -0.81000
C1288       C  0.56575575  0.54702623  0.68670155     0.98400
O1289       O  0.56718445  0.56345905  0.72593998    -0.70100
O1290       O  0.52677974  0.58291265  0.75121935    -0.73700
Al1291     Al  0.54930924  0.56308983  0.78794633     1.49000
C1292       C  0.50547927  0.57887506  0.74738636     0.93600
O1293       O  0.50102039  0.49909018  0.72650316    -0.79900
O1294       O  0.55506810  0.96928854  0.81004064    -0.73500
Al1295     Al  0.50755894  0.51850933  0.79021654     1.90100
O1296       O  0.53389232  0.97043876  0.71913236    -0.72500
O1297       O  0.58424034  0.51184972  0.77792537    -0.72400
O1298       O  0.55969926  0.51975941  0.69007452    -0.78000
O1299       O  0.57407309  0.54872701  0.82802820    -0.76200
O1300       O  0.53729638  0.52647605  0.77691353    -1.12400
O1301       O  0.53332286  0.57154396  0.84973632    -0.71600
C1302       C  0.51629003  0.56044011  0.87243431     0.99200
C1303       C  0.51282664  0.97544946  0.71112535     0.95600
Al1304     Al  0.55574325  0.49757767  0.75095505     1.55600
O1305       O  0.49603060  0.55468248  0.76098762    -0.76200
C1306       C  0.58919879  0.53079454  0.81160662     0.99700
C1307       C  0.53598813  0.96313094  0.83129195     0.94600
O1308       O  0.51814737  0.97909857  0.82486009    -0.81500
O1309       O  0.72999887  0.52942209  0.37085102    -0.81000
C1310       C  0.67423418  0.54527383  0.54400375     0.98400
O1311       O  0.67203159  0.56132695  0.50435233    -0.70100
O1312       O  0.71238162  0.57923465  0.48283797    -0.73700
Al1313     Al  0.69091678  0.56124188  0.44297706     1.49000
C1314       C  0.73375641  0.57771750  0.47767899     0.93600
O1315       O  0.73948008  0.50130284  0.50487499    -0.79900
O1316       O  0.69721543  0.97341658  0.42411494    -0.73500
Al1317     Al  0.73234227  0.51633638  0.43876879     1.90100
O1318       O  0.72131921  0.98011962  0.51323521    -0.72500
O1319       O  0.65616541  0.51121309  0.45219782    -0.72400
O1320       O  0.68104159  0.51815139  0.54053973    -0.78000
O1321       O  0.66662005  0.54750583  0.40122272    -0.76200
O1322       O  0.70283705  0.52452428  0.45319441    -1.12400
O1323       O  0.70898464  0.57018088  0.38198800    -0.71600
C1324       C  0.72402486  0.55540497  0.35685711     0.99200
C1325       C  0.74167710  0.98916490  0.52150401     0.95600
Al1326     Al  0.68496247  0.49595159  0.47918696     1.55600
O1327       O  0.74374942  0.55471858  0.45954438    -0.76200
C1328       C  0.65117572  0.53072431  0.41899246     0.99700
C1329       C  0.71581045  0.96400105  0.40480495     0.94600
O1330       O  0.73465010  0.97787504  0.41096811    -0.81500
O1331       O  0.51727597  0.57469378  0.35671108    -0.81000
C1332       C  0.56552463  0.55839247  0.54277915     0.98400
O1333       O  0.56774730  0.54177316  0.50396088    -0.70100
O1334       O  0.52670441  0.52783007  0.47681400    -0.73700
Al1335     Al  0.55122627  0.54249583  0.44036226     1.49000
C1336       C  0.50581772  0.53083593  0.46551940     0.93600
O1337       O  0.50270571  0.60890788  0.48689071    -0.79900
O1338       O  0.56019722  0.63090049  0.41736140    -0.73500
Al1339     Al  0.51279597  0.59106474  0.42361602     1.90100
O1340       O  0.53458296  0.63240650  0.50476055    -0.72500
O1341       O  0.58797425  0.58949936  0.45452636    -0.72400
O1342       O  0.55918652  0.58560857  0.53836415    -0.78000
O1343       O  0.57787871  0.55316901  0.40291002    -0.76200
O1344       O  0.54087017  0.58033137  0.44622321    -1.12400
O1345       O  0.53605726  0.53342784  0.37708105    -0.71600
C1346       C  0.52332127  0.54786785  0.34668152     0.99200
C1347       C  0.51306219  0.62946679  0.51067934     0.95600
Al1348     Al  0.55895624  0.60733550  0.47615364     1.55600
O1349       O  0.49811904  0.55433214  0.44407383    -0.76200
C1350       C  0.59323352  0.56972141  0.42168116     0.99700
C1351       C  0.54293058  0.64133943  0.39419968     0.94600
O1352       O  0.52308711  0.62950660  0.39816008    -0.81500
O1353       O  0.72169286  0.82755369  0.37134348    -0.81000
C1354       C  0.67306026  0.80985052  0.18683551     0.98400
O1355       O  0.67175966  0.79323392  0.22549300    -0.70100
O1356       O  0.71411364  0.78226926  0.24674134    -0.73700
Al1357     Al  0.68966646  0.79416650  0.28681387     1.49000
C1358       C  0.73493719  0.78519162  0.25850068     0.93600
O1359       O  0.73566121  0.86083365  0.24121110    -0.79900
O1360       O  0.67914811  0.88397991  0.31333897    -0.73500
Al1361     Al  0.72644291  0.84334714  0.30444059     1.90100
O1362       O  0.70291075  0.88340178  0.22332351    -0.72500
O1363       O  0.65143092  0.84089080  0.27979904    -0.72400
O1364       O  0.67818542  0.83734070  0.19163619    -0.78000
O1365       O  0.66323499  0.80287791  0.32686512    -0.76200
O1366       O  0.69844103  0.83244663  0.28247434    -1.12400
O1367       O  0.70647635  0.78469265  0.34822871    -0.71600
C1368       C  0.71759248  0.80013164  0.38006590     0.99200
C1369       C  0.72445471  0.88058231  0.21692801     0.95600
Al1370     Al  0.67936700  0.85922206  0.25445542     1.55600
O1371       O  0.74189840  0.80731761  0.28398666    -0.76200
C1372       C  0.64724045  0.81990900  0.31104126     0.99700
C1373       C  0.69710982  0.89387061  0.33448301     0.94600
O1374       O  0.71643621  0.88097601  0.32904769    -0.81500
O1375       O  0.51046728  0.78749307  0.35780215    -0.81000
C1376       C  0.56692561  0.79345744  0.18350963     0.98400
O1377       O  0.56939037  0.81042681  0.22172648    -0.70100
O1378       O  0.52903101  0.83144185  0.24164002    -0.73700
Al1379     Al  0.55075737  0.81308873  0.28243632     1.49000
C1380       C  0.50752932  0.83015175  0.24558048     0.93600
O1381       O  0.50028859  0.75305445  0.22775388    -0.79900
O1382       O  0.55131310  0.72340262  0.31106258    -0.73500
Al1383     Al  0.50824241  0.77065723  0.29164664     1.90100
O1384       O  0.53107684  0.72489014  0.21863874    -0.72500
O1385       O  0.58446614  0.76054755  0.27782864    -0.72400
O1386       O  0.55969831  0.76685457  0.18881134    -0.78000
O1387       O  0.57482533  0.79927802  0.32484437    -0.76200
O1388       O  0.53795843  0.77673769  0.27572662    -1.12400
O1389       O  0.53414107  0.82467727  0.34248250    -0.71600
C1390       C  0.51871156  0.81278627  0.36944411     0.99200
C1391       C  0.51040682  0.73081200  0.20761659     0.95600
Al1392     Al  0.55526908  0.74648894  0.25142548     1.55600
O1393       O  0.49755127  0.80811713  0.26589084    -0.76200
C1394       C  0.58988383  0.78094261  0.30909385     0.99700
C1395       C  0.53182646  0.71643937  0.32945407     0.94600
O1396       O  0.51388233  0.73204153  0.32090936    -0.81500
O1397       O  0.73073817  0.78535607  0.86862247    -0.81000
C1398       C  0.67400825  0.79670730  0.04253624     0.98400
O1399       O  0.67147625  0.81235439  0.00277151    -0.70100
O1400       O  0.71152449  0.83235032  0.97846770    -0.73700
Al1401     Al  0.68960051  0.81241738  0.94106479     1.49000
C1402       C  0.73305572  0.82956272  0.97765103     0.93600
O1403       O  0.74043580  0.75139037  0.99918186    -0.79900
O1404       O  0.68884396  0.72188090  0.92105015    -0.73500
Al1405     Al  0.73228626  0.76883952  0.93523785     1.90100
O1406       O  0.70929773  0.72543275  0.01191033    -0.72500
O1407       O  0.65624941  0.76058985  0.95216830    -0.72400
O1408       O  0.68131409  0.76978046  0.03961635    -0.78000
O1409       O  0.66545811  0.79716389  0.90085465    -0.76200
O1410       O  0.70263239  0.77610982  0.95110932    -1.12400
O1411       O  0.70562257  0.82186117  0.87999077    -0.71600
C1412       C  0.72198495  0.81020008  0.85517318     0.99200
C1413       C  0.73022004  0.73002895  0.02073759     0.95600
Al1414     Al  0.68536965  0.74705164  0.97862354     1.55600
O1415       O  0.74306781  0.80619450  0.96091024    -0.76200
C1416       C  0.65073232  0.77934624  0.91836465     0.99700
C1417       C  0.70796612  0.71435420  0.90096757     0.94600
O1418       O  0.72596974  0.73006339  0.90655675    -0.81500
O1419       O  0.51445101  0.81963826  0.85667176    -0.81000
C1420       C  0.56534848  0.80340542  0.03936220     0.98400
O1421       O  0.56731612  0.78686698  0.00027029    -0.70100
O1422       O  0.52644222  0.77278026  0.97176327    -0.73700
Al1423     Al  0.55081596  0.78826853  0.93638200     1.49000
C1424       C  0.50528233  0.77797397  0.96676999     0.93600
O1425       O  0.50368933  0.85735505  0.98552268    -0.79900
O1426       O  0.56095764  0.87592743  0.91476071    -0.73500
Al1427     Al  0.51250304  0.83768483  0.92302975     1.90100
O1428       O  0.53625870  0.87903595  0.00237793    -0.72500
O1429       O  0.58795528  0.83437816  0.95197194    -0.72400
O1430       O  0.55942146  0.83082038  0.03537941    -0.78000
O1431       O  0.57721099  0.79935595  0.89872148    -0.76200
O1432       O  0.54067442  0.82617463  0.94384854    -1.12400
O1433       O  0.53557020  0.77986143  0.87345455    -0.71600
C1434       C  0.52120674  0.79328001  0.84545089     0.99200
C1435       C  0.51475156  0.87745415  0.00859130     0.95600
Al1436     Al  0.55946268  0.85268511  0.97351545     1.55600
O1437       O  0.49756138  0.80227701  0.94795356    -0.76200
C1438       C  0.59271812  0.81553034  0.91754158     0.99700
C1439       C  0.54399559  0.88616069  0.89036070     0.94600
O1440       O  0.52386502  0.87494943  0.89419167    -0.81500
O1441       O  0.26847516  0.87239962  0.14243113    -0.81000
C1442       C  0.31369861  0.93068668  0.30367257     0.98400
O1443       O  0.31577580  0.90295812  0.29293091    -0.70100
O1444       O  0.28292400  0.86426848  0.28085135    -0.73700
Al1445     Al  0.30601129  0.87916933  0.23598521     1.49000
C1446       C  0.26180881  0.85938852  0.27478251     0.93600
O1447       O  0.24750985  0.93010726  0.23700368    -0.79900
O1448       O  0.29327403  0.94774202  0.12923157    -0.73500
Al1449     Al  0.25924953  0.90162830  0.18990148     1.90100
O1450       O  0.27263135  0.96488795  0.21645384    -0.72500
O1451       O  0.33011312  0.93539491  0.18354493    -0.72400
O1452       O  0.30751176  0.94957207  0.27051818    -0.78000
O1453       O  0.33371180  0.88738692  0.19769259    -0.76200
O1454       O  0.28866490  0.90857439  0.20871012    -1.12400
O1455       O  0.29772373  0.85127731  0.18408515    -0.71600
C1456       C  0.28302691  0.85132348  0.14834643     0.99200
C1457       C  0.25432885  0.95696750  0.23797692     0.95600
Al1458     Al  0.29997776  0.94580125  0.20060716     1.55600
O1459       O  0.25145030  0.87101768  0.23791095    -0.76200
C1460       C  0.34212444  0.91193007  0.18278595     0.99700
C1461       C  0.27279305  0.94681538  0.11297728     0.94600
O1462       O  0.25811879  0.93094107  0.13602547    -0.81500
O1463       O  0.47464529  0.49517798  0.12649072    -0.81000
C1464       C  0.42868210  0.94104730  0.29049956     0.98400
O1465       O  0.43564641  0.96756884  0.28261892    -0.70100
O1466       O  0.46057197  0.49367973  0.26863252    -0.73700
Al1467     Al  0.43602049  0.98666453  0.21789217     1.49000
C1468       C  0.48114725  0.50162665  0.26281362     0.93600
O1469       O  0.49638551  0.93072045  0.19022738    -0.79900
O1470       O  0.45822699  0.90758176  0.12884749    -0.73500
Al1471     Al  0.48174993  0.96662433  0.16563873     1.90100
O1472       O  0.46804505  0.90725852  0.22891079    -0.72500
O1473       O  0.41633817  0.92914119  0.15300718    -0.72400
O1474       O  0.42670325  0.92271759  0.25410972    -0.78000
O1475       O  0.40696803  0.96881699  0.19878128    -0.76200
O1476       O  0.45371544  0.95786219  0.19072991    -1.12400
O1477       O  0.44610636  0.51359334  0.17389174    -0.71600
C1478       C  0.45964869  0.51537834  0.13602800     0.99200
C1479       C  0.48885105  0.90900951  0.21613638     0.95600
Al1480     Al  0.44328424  0.92009765  0.19080192     1.55600
O1481       O  0.49231631  0.98655601  0.22606588    -0.76200
C1482       C  0.40126551  0.94711161  0.17023715     0.99700
C1483       C  0.47091356  0.91987039  0.09601045     0.94600
O1484       O  0.47682693  0.94712765  0.10132866    -0.81500
O1485       O  0.27572386  0.51354031  0.57902339    -0.81000
C1486       C  0.31155246  0.93524563  0.44917365     0.98400
O1487       O  0.31600898  0.96250750  0.45943512    -0.70100
O1488       O  0.28727302  0.52046452  0.47470726    -0.73700
Al1489     Al  0.30651448  0.98922768  0.51332920     1.49000
C1490       C  0.26586125  0.51654978  0.46913898     0.93600
O1491       O  0.24566306  0.94291582  0.51696146    -0.79900
O1492       O  0.29139718  0.92546643  0.62466618    -0.73500
Al1493     Al  0.25872947  0.97287010  0.56049945     1.90100
O1494       O  0.26887768  0.90669759  0.54201540    -0.72500
O1495       O  0.32807460  0.93141132  0.56451507    -0.72400
O1496       O  0.30308216  0.91797754  0.48230280    -0.78000
O1497       O  0.33312896  0.97946856  0.55379009    -0.76200
O1498       O  0.28767481  0.96245479  0.54242649    -1.12400
O1499       O  0.31291567  0.51693405  0.56120239    -0.71600
C1500       C  0.29511867  0.52630467  0.58406361     0.99200
C1501       C  0.25107925  0.91529578  0.51943017     0.95600
Al1502     Al  0.29713509  0.92419396  0.55265160     1.55600
O1503       O  0.25242849  0.00188606  0.50873910    -0.76200
C1504       C  0.34099288  0.95369567  0.56454661     0.99700
C1505       C  0.27106103  0.92937630  0.64143113     0.94600
O1506       O  0.25711564  0.94628079  0.61768961    -0.81500
O1507       O  0.47070468  0.86363309  0.58594319    -0.81000
C1508       C  0.42926407  0.93458131  0.43500954     0.98400
O1509       O  0.42349218  0.90755912  0.44446247    -0.70100
O1510       O  0.45428177  0.86411277  0.44805184    -0.73700
Al1511     Al  0.43285564  0.87946472  0.49698477     1.49000
C1512       C  0.47517191  0.85673754  0.45244365     0.93600
O1513       O  0.49426654  0.92391881  0.49972847    -0.79900
O1514       O  0.44870405  0.94112783  0.60907601    -0.73500
Al1515     Al  0.48096859  0.89425182  0.54263725     1.90100
O1516       O  0.47239911  0.96086199  0.52786463    -0.72500
O1517       O  0.41233216  0.93766367  0.54941149    -0.72400
O1518       O  0.43824275  0.95101659  0.46845457    -0.78000
O1519       O  0.40700264  0.88953940  0.54003867    -0.76200
O1520       O  0.45224277  0.90548677  0.52588764    -1.12400
O1521       O  0.44029920  0.84716291  0.54379680    -0.71600
C1522       C  0.45552438  0.84395466  0.57815318     0.99200
C1523       C  0.48978297  0.95168793  0.50394210     0.95600
Al1524     Al  0.44351721  0.94393084  0.53767793     1.55600
O1525       O  0.48655508  0.86578309  0.48979525    -0.76200
C1526       C  0.39954911  0.91531022  0.55244119     0.99700
C1527       C  0.46897171  0.93659322  0.62515137     0.94600
O1528       O  0.48285610  0.92003497  0.60034625    -0.81500
O1529       O  0.76331681  0.60950602  0.15584428    -0.81000
C1530       C  0.81189304  0.66826804  0.30462459     0.98400
O1531       O  0.80345482  0.64254100  0.29687925    -0.70100
O1532       O  0.77364699  0.60295218  0.26053221    -0.73700
Al1533     Al  0.80129668  0.62272316  0.23321263     1.49000
C1534       C  0.75319675  0.61284068  0.26715051     0.93600
O1535       O  0.74729876  0.68773785  0.19979305    -0.79900
O1536       O  0.78647960  0.70286165  0.14073499    -0.73500
Al1537     Al  0.75821210  0.64938906  0.18036700     1.90100
O1538       O  0.77645207  0.70774894  0.24068871    -0.72500
O1539       O  0.82529722  0.67569109  0.16599873    -0.72400
O1540       O  0.81589171  0.68575807  0.26783811    -0.78000
O1541       O  0.83249934  0.63610611  0.21313404    -0.76200
O1542       O  0.78653344  0.65389470  0.20524134    -1.12400
O1543       O  0.79981390  0.59950510  0.17283250    -0.71600
C1544       C  0.78097486  0.59286483  0.15142627     0.99200
C1545       C  0.75571773  0.70803619  0.22716108     0.95600
Al1546     Al  0.80001704  0.68982763  0.20367025     1.55600
O1547       O  0.74618318  0.63544187  0.24280575    -0.76200
C1548       C  0.83953567  0.65731371  0.18456299     0.99700
C1549       C  0.77375530  0.69049247  0.10808369     0.94600
O1550       O  0.76631781  0.66407676  0.11499613    -0.81500
O1551       O  0.96337531  0.76921155  0.16290848    -0.81000
C1552       C  0.92178577  0.69812799  0.30643783     0.98400
O1553       O  0.92600463  0.72563144  0.29889711    -0.70100
O1554       O  0.94932842  0.77236280  0.26484857    -0.73700
Al1555     Al  0.92658332  0.74537570  0.23500490     1.49000
C1556       C  0.97079519  0.76978980  0.27355849     0.93600
O1557       O  0.99106295  0.69588301  0.20870475    -0.79900
O1558       O  0.95696249  0.67093369  0.14570415    -0.73500
Al1559     Al  0.97438364  0.73138937  0.18826595     1.90100
O1560       O  0.96430330  0.67029620  0.24814426    -0.72500
O1561       O  0.91278280  0.68550584  0.16765527    -0.72400
O1562       O  0.92172145  0.67970361  0.26975278    -0.78000
O1563       O  0.89932211  0.72401750  0.21154623    -0.76200
O1564       O  0.94672636  0.71901442  0.20967189    -1.12400
O1565       O  0.92569222  0.76807332  0.17385097    -0.71600
C1566       C  0.94344614  0.78015652  0.15519142     0.99200
C1567       C  0.98478236  0.67334333  0.23412880     0.95600
Al1568     Al  0.93953107  0.68000412  0.20759303     1.55600
O1569       O  0.98241432  0.74929431  0.25176230    -0.76200
C1570       C  0.89599005  0.70129762  0.18310693     0.99700
C1571       C  0.96792358  0.68704538  0.11416645     0.94600
O1572       O  0.97021979  0.71495684  0.12217069    -0.81500
O1573       O  0.76304947  0.74549438  0.59853466    -0.81000
C1574       C  0.80804715  0.67568438  0.44919150     0.98400
O1575       O  0.81168172  0.70345079  0.45661507    -0.70100
O1576       O  0.77841059  0.74254709  0.45749561    -0.73700
Al1577     Al  0.80079340  0.73134852  0.50721544     1.49000
C1578       C  0.75755940  0.74988918  0.46233039     0.93600
O1579       O  0.74218483  0.68333616  0.51125276    -0.79900
O1580       O  0.78679478  0.67097288  0.62438718    -0.73500
Al1581     Al  0.75362094  0.71424042  0.55496130     1.90100
O1582       O  0.76574336  0.64884468  0.54203251    -0.72500
O1583       O  0.82411774  0.67728922  0.56659297    -0.72400
O1584       O  0.80032595  0.65916407  0.48410749    -0.78000
O1585       O  0.82720128  0.72507131  0.54950727    -0.76200
O1586       O  0.78292289  0.70470535  0.53870572    -1.12400
O1587       O  0.79209368  0.76329518  0.55276357    -0.71600
C1588       C  0.77795338  0.76550170  0.58954657     0.99200
C1589       C  0.74861552  0.65612428  0.51571002     0.95600
Al1590     Al  0.79349047  0.66758521  0.55314247     1.55600
O1591       O  0.74695374  0.74303957  0.50218126    -0.76200
C1592       C  0.83586873  0.70073240  0.56528056     0.99700
C1593       C  0.76595103  0.67275804  0.63872676     0.94600
O1594       O  0.75161426  0.68789207  0.61281035    -0.81500
O1595       O  0.96874788  0.62536383  0.60564453    -0.81000
C1596       C  0.92470684  0.69160798  0.45118459     0.98400
O1597       O  0.92120074  0.66398708  0.46015392    -0.70100
O1598       O  0.95432790  0.62441496  0.46437836    -0.73700
Al1599     Al  0.93195489  0.63731538  0.51262307     1.49000
C1600       C  0.97513540  0.61720576  0.47014917     0.93600
O1601       O  0.99127727  0.68580799  0.51661561    -0.79900
O1602       O  0.94557030  0.70141085  0.62615747    -0.73500
Al1603     Al  0.97886034  0.65564575  0.56049597     1.90100
O1604       O  0.96683688  0.72091648  0.54204327    -0.72500
O1605       O  0.90846053  0.69291431  0.56820920    -0.72400
O1606       O  0.93246630  0.70888256  0.48499221    -0.78000
O1607       O  0.90546480  0.64469510  0.55444024    -0.76200
O1608       O  0.94977246  0.66489134  0.54260653    -1.12400
O1609       O  0.94055758  0.60615641  0.55930943    -0.71600
C1610       C  0.95428164  0.60485263  0.59667454     0.99200
C1611       C  0.98518980  0.71322289  0.52023751     0.95600
Al1612     Al  0.93912157  0.70240906  0.55441142     1.55600
O1613       O  0.98580324  0.62606586  0.50879997    -0.76200
C1614       C  0.89669961  0.66945616  0.56819537     0.99700
C1615       C  0.96625950  0.69916726  0.64127194     0.94600
O1616       O  0.98039381  0.68283521  0.61685773    -0.81500
O1617       O  0.00855129  0.55319270  0.36486650    -0.81000
C1618       C  0.06472117  0.56318056  0.19286961     0.98400
O1619       O  0.06641469  0.58022447  0.23136261    -0.70100
O1620       O  0.02722239  0.59926296  0.26261392    -0.73700
Al1621     Al  0.05047362  0.57952043  0.29580479     1.49000
C1622       C  0.00607478  0.59498222  0.25809721     0.93600
O1623       O  0.00175974  0.51506554  0.23620084    -0.79900
O1624       O  0.06486539  0.99074208  0.32929050    -0.73500
Al1625     Al  0.00874755  0.53468369  0.29948990     1.90100
O1626       O  0.03970683  0.98233120  0.24092322    -0.72500
O1627       O  0.08605418  0.52891563  0.28338322    -0.72400
O1628       O  0.05981659  0.53558498  0.19767199    -0.78000
O1629       O  0.07654806  0.56642635  0.33231434    -0.76200
O1630       O  0.03850936  0.54273667  0.28554100    -1.12400
O1631       O  0.03595247  0.58681726  0.35993273    -0.71600
C1632       C  0.01877463  0.57589176  0.38253045     0.99200
C1633       C  0.01848652  0.98720473  0.23175837     0.95600
Al1634     Al  0.05683244  0.51382806  0.25924237     1.55600
O1635       O  0.99679295  0.57053947  0.27051516    -0.76200
C1636       C  0.09172316  0.54941379  0.31395954     0.99700
C1637       C  0.04674815  0.98094502  0.34964485     0.94600
O1638       O  0.02736214  0.99353465  0.34177156    -0.81500
O1639       O  0.22599552  0.58258948  0.38144790    -0.81000
C1640       C  0.17609525  0.57113515  0.19821191     0.98400
O1641       O  0.17275730  0.55535282  0.23743947    -0.70100
O1642       O  0.21196811  0.53385134  0.26527983    -0.73700
Al1643     Al  0.18927678  0.55417871  0.30089157     1.49000
C1644       C  0.23321243  0.53448843  0.27391628     0.93600
O1645       O  0.24243280  0.60694876  0.24885983    -0.79900
O1646       O  0.19016027  0.64508774  0.32002981    -0.73500
Al1647     Al  0.23196420  0.59510596  0.31386040     1.90100
O1648       O  0.21471127  0.63888826  0.23120983    -0.72500
O1649       O  0.15714670  0.60772796  0.28558330    -0.72400
O1650       O  0.18462485  0.59720318  0.20164426    -0.78000
O1651       O  0.16427500  0.57042872  0.33776366    -0.76200
O1652       O  0.20302115  0.58973084  0.29300881    -1.12400
O1653       O  0.20392390  0.54401168  0.36405859    -0.71600
C1654       C  0.21851913  0.55670236  0.39225944     0.99200
C1655       C  0.23498086  0.62888565  0.22356853     0.95600
Al1656     Al  0.18781595  0.61980840  0.26247919     1.55600
O1657       O  0.24256869  0.55611487  0.29651126    -0.76200
C1658       C  0.15013153  0.58816746  0.31705207     0.99700
C1659       C  0.20917690  0.65230201  0.34007014     0.94600
O1660       O  0.22696975  0.63581141  0.33549508    -0.81500
O1661       O  0.01056243  0.58693404  0.86469857    -0.81000
C1662       C  0.05977315  0.57392359  0.04931324     0.98400
O1663       O  0.06377541  0.55889761  0.00921633    -0.70100
O1664       O  0.02595030  0.53577731  0.97750582    -0.73700
Al1665     Al  0.04775576  0.55835351  0.94462397     1.49000
C1666       C  0.00498861  0.53503678  0.96622072     0.93600
O1667       O  0.99213469  0.60745690  0.99913979    -0.79900
O1668       O  0.04367473  0.64866228  0.93097780    -0.73500
Al1669     Al  0.00354951  0.59740754  0.93322553     1.90100
O1670       O  0.01857894  0.64043239  0.01816272    -0.72500
O1671       O  0.07769475  0.61244293  0.96551507    -0.72400
O1672       O  0.04995954  0.59947839  0.04718637    -0.78000
O1673       O  0.07159498  0.57710302  0.90940685    -0.76200
O1674       O  0.03246952  0.59282086  0.95480370    -1.12400
O1675       O  0.03428303  0.54920577  0.87996832    -0.71600
C1676       C  0.01989429  0.56227115  0.85146444     0.99200
C1677       C  0.99859098  0.62975473  0.02490811     0.95600
Al1678     Al  0.04638310  0.62289227  0.98748485     1.55600
O1679       O  0.99465285  0.55716838  0.94653122    -0.76200
C1680       C  0.08523658  0.59408438  0.93233765     0.99700
C1681       C  0.02460591  0.65573956  0.91069904     0.94600
O1682       O  0.00710577  0.63899830  0.91471023    -0.81500
O1683       O  0.21862521  0.55088910  0.86860376    -0.81000
C1684       C  0.17064777  0.56150289  0.05446150     0.98400
O1685       O  0.16710647  0.57859554  0.01691705    -0.70100
O1686       O  0.20770729  0.59446006  0.99179907    -0.73700
Al1687     Al  0.18387136  0.57999037  0.95376026     1.49000
C1688       C  0.22875108  0.59163330  0.98217321     0.93600
O1689       O  0.23317313  0.51396546  0.99551579    -0.79900
O1690       O  0.19045116  0.98675318  0.92163615    -0.73500
Al1691     Al  0.22313408  0.53302564  0.93388241     1.90100
O1692       O  0.21099086  0.98784398  0.01262332    -0.72500
O1693       O  0.14782492  0.53195228  0.96368022    -0.72400
O1694       O  0.17668981  0.53433906  0.04769850    -0.78000
O1695       O  0.15802564  0.56960089  0.91508522    -0.76200
O1696       O  0.19480195  0.54224980  0.95657514    -1.12400
O1697       O  0.19902409  0.59102403  0.89186090    -0.71600
C1698       C  0.21217385  0.57777126  0.86071950     0.99200
C1699       C  0.23200714  0.99110347  0.02193595     0.95600
Al1700     Al  0.17706737  0.51399321  0.98398259     1.55600
O1701       O  0.23685378  0.56928100  0.95805387    -0.76200
C1702       C  0.14263995  0.55301272  0.93321391     0.99700
C1703       C  0.20933841  0.97940392  0.90009306     0.94600
O1704       O  0.22752227  0.99482763  0.90497889    -0.81500
O1705       O  0.26243855  0.61625527  0.65483015    -0.81000
C1706       C  0.31342999  0.67683712  0.79821665     0.98400
O1707       O  0.30562042  0.65045166  0.79323893    -0.70100
O1708       O  0.27759540  0.60779911  0.76081200    -0.73700
Al1709     Al  0.30220892  0.62975319  0.73023723     1.49000
C1710       C  0.25664805  0.61319099  0.76961188     0.93600
O1711       O  0.24529898  0.69125889  0.71482706    -0.79900
O1712       O  0.28317748  0.70860199  0.63774883    -0.73500
Al1713     Al  0.25602715  0.65437435  0.68645494     1.90100
O1714       O  0.27682374  0.71512587  0.73784369    -0.72500
O1715       O  0.32321984  0.68138842  0.65690967    -0.72400
O1716       O  0.31678794  0.69319103  0.75966968    -0.78000
O1717       O  0.33180313  0.64320041  0.70587861    -0.76200
O1718       O  0.28549636  0.66009542  0.70437360    -1.12400
O1719       O  0.29938004  0.60688874  0.67057698    -0.71600
C1720       C  0.28060177  0.60048741  0.64872181     0.99200
C1721       C  0.25527629  0.71328753  0.73540089     0.95600
Al1722     Al  0.29886073  0.69616251  0.69821697     1.55600
O1723       O  0.24691577  0.63540609  0.74877159    -0.76200
C1724       C  0.33773939  0.66259311  0.67345565     0.99700
C1725       C  0.26739018  0.69800891  0.61042014     0.94600
O1726       O  0.25859365  0.67285316  0.62108829    -0.81500
O1727       O  0.46665993  0.75334929  0.63969679    -0.81000
C1728       C  0.42326566  0.68774239  0.79131898     0.98400
O1729       O  0.42983715  0.71462132  0.78493616    -0.70100
O1730       O  0.45465945  0.76004444  0.74834841    -0.73700
Al1731     Al  0.43061911  0.73478238  0.72086916     1.49000
C1732       C  0.47611876  0.75678613  0.75470757     0.93600
O1733       O  0.49164413  0.68011753  0.69592690    -0.79900
O1734       O  0.45363769  0.65726629  0.62813731    -0.73500
Al1735     Al  0.47705493  0.71582709  0.67029580     1.90100
O1736       O  0.46287586  0.65386347  0.72758222    -0.72500
O1737       O  0.41178288  0.67908662  0.65201127    -0.72400
O1738       O  0.42157740  0.67006647  0.75379471    -0.78000
O1739       O  0.40183862  0.71737999  0.70018968    -0.76200
O1740       O  0.44882499  0.70639387  0.69330807    -1.12400
O1741       O  0.42969032  0.75697264  0.66003399    -0.71600
C1742       C  0.44687343  0.76572243  0.63487812     0.99200
C1743       C  0.48398389  0.65715366  0.71848079     0.95600
Al1744     Al  0.43834980  0.66862031  0.69029743     1.55600
O1745       O  0.48664305  0.73592333  0.73153318    -0.76200
C1746       C  0.39657599  0.69694528  0.66894800     0.99700
C1747       C  0.46746162  0.66961809  0.59771953     0.94600
O1748       O  0.47374448  0.69650444  0.60532163    -0.81500
O1749       O  0.27150839  0.76531232  0.08182292    -0.81000
C1750       C  0.31218310  0.68885500  0.94230603     0.98400
O1751       O  0.30726649  0.71661821  0.94598136    -0.70100
O1752       O  0.28475322  0.76584818  0.97755245    -0.73700
Al1753     Al  0.30734531  0.73884568  0.00800479     1.49000
C1754       C  0.26315992  0.76437829  0.97098442     0.93600
O1755       O  0.24333958  0.69184104  0.03737501    -0.79900
O1756       O  0.27699595  0.66793239  0.10392520    -0.73500
Al1757     Al  0.25982040  0.72757494  0.05754018     1.90100
O1758       O  0.27093015  0.66463763  0.00210990    -0.72500
O1759       O  0.32105570  0.68298708  0.08363392    -0.72400
O1760       O  0.31337678  0.67263983  0.98166034    -0.78000
O1761       O  0.33443768  0.71804514  0.03266202    -0.76200
O1762       O  0.28736435  0.71408851  0.03662990    -1.12400
O1763       O  0.30900310  0.76264125  0.06679873    -0.71600
C1764       C  0.29187434  0.77491859  0.08805819     0.99200
C1765       C  0.25014876  0.66870561  0.01324939     0.95600
Al1766     Al  0.29497765  0.67535833  0.04279769     1.55600
O1767       O  0.25163946  0.74466060  0.99391586    -0.76200
C1768       C  0.33766591  0.69798242  0.06618167     0.99700
C1769       C  0.26567382  0.68481852  0.13396189     0.94600
O1770       O  0.26357259  0.71252347  0.12448134    -0.81500
O1771       O  0.46733157  0.61443126  0.09029319    -0.81000
C1772       C  0.42203562  0.67963579  0.93635382     0.98400
O1773       O  0.41999413  0.65156987  0.94390941    -0.70100
O1774       O  0.45127305  0.60977652  0.95242187    -0.73700
Al1775     Al  0.42923285  0.62573097  0.99898581     1.49000
C1776       C  0.47227303  0.60344430  0.95690754     0.93600
O1777       O  0.48869983  0.67385945  0.99784834    -0.79900
O1778       O  0.44553453  0.69132947  0.11008514    -0.73500
Al1779     Al  0.47693958  0.64434283  0.04360662     1.90100
O1780       O  0.46440897  0.70966074  0.02154968    -0.72500
O1781       O  0.40751395  0.68157834  0.05989320    -0.72400
O1782       O  0.42808079  0.69711537  0.97152997    -0.78000
O1783       O  0.40209051  0.63495253  0.03812269    -0.76200
O1784       O  0.44755351  0.65351887  0.02750231    -1.12400
O1785       O  0.43696646  0.59610960  0.04930872    -0.71600
C1786       C  0.45178070  0.59476866  0.08474598     0.99200
C1787       C  0.48264694  0.70135135  0.99975823     0.95600
Al1788     Al  0.43715252  0.69120024  0.03971796     1.55600
O1789       O  0.48342005  0.61421711  0.99324681    -0.76200
C1790       C  0.39477416  0.65912444  0.05750615     0.99700
C1791       C  0.46634077  0.68892386  0.12355730     0.94600
O1792       O  0.47988333  0.67215325  0.09862731    -0.81500
C1793       C  0.36150630  0.69069627  0.08029980    -0.15600
C1794       C  0.37025986  0.66276131  0.07231798    -0.30800
H1795       H  0.37308013  0.70977405  0.08296902     0.13400
H1796       H  0.35868393  0.64401111  0.06572399     0.14000
C1797       C  0.41858285  0.67561647  0.84276391    -0.15600
C1798       C  0.41940413  0.69270499  0.88488903    -0.30800
H1799       H  0.41667242  0.65135520  0.84630886     0.13400
H1800       H  0.42155315  0.71692440  0.88116118     0.14000
C1801       C  0.31717064  0.69016322  0.84904845    -0.15600
C1802       C  0.31504853  0.67427067  0.89208377    -0.30800
H1803       H  0.31949545  0.71442720  0.85116040     0.13400
H1804       H  0.31338409  0.64990475  0.89019250     0.14000
C1805       C  0.36239801  0.66531734  0.66032951    -0.15600
C1806       C  0.37201685  0.69273534  0.65682140    -0.30800
H1807       H  0.37343341  0.64563735  0.66572931     0.13400
H1808       H  0.36096647  0.71266979  0.65772783     0.14000
C1809       C  0.24354387  0.61630499  0.99553912    -0.15600
C1810       C  0.23463419  0.64422341  0.00221103    -0.30800
H1811       H  0.26204078  0.61198681  0.99621214     0.13400
H1812       H  0.21615118  0.64860727  0.00173382     0.14000
C1813       C  0.22176962  0.59547794  0.81780416    -0.15600
C1814       C  0.24422183  0.59271952  0.80487580    -0.30800
H1815       H  0.21159744  0.61405556  0.80264135     0.13400
H1816       H  0.25448416  0.57506977  0.82273400     0.14000
C1817       C  0.11020540  0.58875507  0.92621248    -0.15600
C1818       C  0.11827256  0.56009601  0.92322779    -0.30800
H1819       H  0.12199278  0.60718753  0.93345598     0.13400
H1820       H  0.10625341  0.54141740  0.92260052     0.14000
C1821       C  0.25250854  0.67198807  0.17732367    -0.15600
C1822       C  0.25028931  0.64207966  0.18437335    -0.30800
H1823       H  0.24270349  0.68742780  0.20131461     0.13400
H1824       H  0.26063304  0.62653921  0.16171211     0.14000
C1825       C  0.17115521  0.55779872  0.14804349    -0.15600
C1826       C  0.16934046  0.57461090  0.10596510    -0.30800
H1827       H  0.17063001  0.53336115  0.14524253     0.13400
H1828       H  0.16899810  0.59905309  0.10914860     0.14000
C1829       C  0.06650490  0.57680949  0.14182485    -0.15600
C1830       C  0.06546147  0.56033977  0.09901590    -0.30800
H1831       H  0.06591619  0.60127220  0.13946037     0.13400
H1832       H  0.06684228  0.53591635  0.10095421     0.14000
C1833       C  0.12505506  0.58333186  0.32414502    -0.15600
C1834       C  0.11641711  0.55503267  0.32434156    -0.30800
H1835       H  0.11343758  0.60248130  0.31938513     0.13400
H1836       H  0.12819818  0.53585006  0.32260560     0.14000
C1837       C  0.98635290  0.59766576  0.43104441    -0.15600
C1838       C  0.00924761  0.59184540  0.42779507    -0.30800
H1839       H  0.97513612  0.58870831  0.40172313     0.13400
H1840       H  0.02103495  0.60254513  0.45411992     0.14000
C1841       C  0.86067299  0.69877639  0.57740159    -0.15600
C1842       C  0.87177534  0.67179218  0.57913623    -0.30800
H1843       H  0.87049355  0.71950617  0.57536852     0.13400
H1844       H  0.86197325  0.65101376  0.57884992     0.14000
C1845       C  0.91820497  0.68659548  0.35856274    -0.15600
C1846       C  0.92124142  0.70411671  0.39971571    -0.30800
H1847       H  0.91577241  0.66248881  0.36320209     0.13400
H1848       H  0.92431528  0.72807629  0.39477946     0.14000
C1849       C  0.00043724  0.64837015  0.24270744    -0.15600
C1850       C  0.99191639  0.62022203  0.24223012    -0.30800
H1851       H  0.01866530  0.65283391  0.24834188     0.13400
H1852       H  0.97371995  0.61618123  0.23506948     0.14000
C1853       C  0.98259503  0.64312233  0.06329328    -0.15600
C1854       C  0.98066376  0.67316519  0.07066239    -0.30800
H1855       H  0.97208369  0.62789133  0.08559144     0.13400
H1856       H  0.99069839  0.68810527  0.04673135     0.14000
C1857       C  0.81593499  0.67918572  0.35695935    -0.15600
C1858       C  0.81106200  0.66237739  0.39802039    -0.30800
H1859       H  0.82057210  0.70271196  0.36170864     0.13400
H1860       H  0.80625295  0.63891890  0.39311180     0.14000
C1861       C  0.86460037  0.66347836  0.17829919    -0.15600
C1862       C  0.87200586  0.69219736  0.17181780    -0.30800
H1863       H  0.87694830  0.64580895  0.18780992     0.13400
H1864       H  0.85937339  0.71029959  0.16798560     0.14000
C1865       C  0.45706182  0.81633250  0.60895670    -0.15600
C1866       C  0.44383513  0.79211671  0.60184420    -0.30800
H1867       H  0.47043171  0.81545482  0.63786682     0.13400
H1868       H  0.42955848  0.79276391  0.57522087     0.14000
C1869       C  0.29692312  0.55358727  0.61471497    -0.15600
C1870       C  0.27926040  0.57319918  0.61764270    -0.30800
H1871       H  0.31342562  0.55859085  0.63221740     0.13400
H1872       H  0.26311726  0.56850658  0.59830303     0.14000
C1873       C  0.25265069  0.53848245  0.43787539    -0.15600
C1874       C  0.22945387  0.53869001  0.43311428    -0.30800
H1875       H  0.26268189  0.55462196  0.41625416     0.13400
H1876       H  0.21929105  0.52167783  0.45230040     0.14000
C1877       C  0.36599790  0.94843702  0.57133667    -0.15600
C1878       C  0.37514162  0.92022777  0.56670465    -0.30800
H1879       H  0.37715122  0.96799580  0.57077741     0.13400
H1880       H  0.36392754  0.90073238  0.56562435     0.14000
C1881       C  0.45811920  0.54162196  0.10221504    -0.15600
C1882       C  0.45151643  0.56890137  0.11916135    -0.30800
H1883       H  0.46391236  0.53898645  0.06317271     0.13400
H1884       H  0.44769317  0.57259865  0.15906450     0.14000
C1885       C  0.42376503  0.93015885  0.34237182    -0.15600
C1886       C  0.42716756  0.94737153  0.38349947    -0.30800
H1887       H  0.41968764  0.90644868  0.34697079     0.13400
H1888       H  0.43179887  0.97089120  0.37866369     0.14000
C1889       C  0.28150973  0.82534619  0.11453055    -0.15600
C1890       C  0.29565724  0.80158775  0.11901238    -0.30800
H1891       H  0.26750196  0.82490543  0.08710665     0.13400
H1892       H  0.31050444  0.80211826  0.14411016     0.14000
C1893       C  0.24091060  0.98070155  0.26139908    -0.15600
C1894       C  0.24735599  0.50961069  0.25765714    -0.30800
H1895       H  0.22248343  0.97782504  0.26726984     0.13400
H1896       H  0.26563926  0.51384077  0.25178083     0.14000
C1897       C  0.26515830  0.96645338  0.06991423    -0.15600
C1898       C  0.24241807  0.97058523  0.06041515    -0.30800
H1899       H  0.27791356  0.97907121  0.04868597     0.13400
H1900       H  0.23006121  0.95770730  0.08241362     0.14000
C1901       C  0.31504162  0.92334315  0.39697741    -0.15600
C1902       C  0.31712151  0.94158623  0.35638846    -0.30800
H1903       H  0.31271388  0.89929842  0.39108040     0.13400
H1904       H  0.31795323  0.96582378  0.36218380     0.14000
C1905       C  0.36686915  0.91439235  0.16847420    -0.15600
C1906       C  0.37647607  0.94184948  0.16187495    -0.30800
H1907       H  0.37785237  0.89451557  0.17187227     0.13400
H1908       H  0.36550133  0.96184261  0.16205350     0.14000
C1909       C  0.50317178  0.89978610  0.04329998    -0.15600
C1910       C  0.48030405  0.90066004  0.05393183    -0.30800
H1911       H  0.51430728  0.91572878  0.06255483     0.13400
H1912       H  0.46917241  0.88362355  0.03765897     0.14000
C1913       C  0.49711074  0.72505151  0.97943807    -0.15600
C1914       C  0.48974033  0.75404453  0.98096748    -0.30800
H1915       H  0.51424901  0.71907986  0.96566788     0.13400
H1916       H  0.47222625  0.76011741  0.99200518     0.14000
C1917       C  0.51111593  0.77625844  0.80169320    -0.15600
C1918       C  0.48832669  0.77780196  0.79028484    -0.30800
H1919       H  0.52161673  0.75863379  0.78432333     0.13400
H1920       H  0.47767939  0.79434196  0.81012994     0.14000
C1921       C  0.62626580  0.78296515  0.90504981    -0.15600
C1922       C  0.61699928  0.81081366  0.90370525    -0.30800
H1923       H  0.61506410  0.76361848  0.90972020     0.13400
H1924       H  0.62824525  0.83027960  0.90578826     0.14000
C1925       C  0.74203941  0.70938526  0.05644818    -0.15600
C1926       C  0.76485780  0.70906367  0.06576185    -0.30800
H1927       H  0.73111307  0.69359457  0.07669232     0.13400
H1928       H  0.77597246  0.72570439  0.04830179     0.14000
C1929       C  0.49400786  0.85601000  0.23025387    -0.15600
C1930       C  0.50361484  0.88342854  0.22729996    -0.30800
H1931       H  0.47550413  0.85303062  0.22584310     0.13400
H1932       H  0.52211615  0.88665306  0.23085551     0.14000
C1933       C  0.50886730  0.83016514  0.41244475    -0.15600
C1934       C  0.48605901  0.83675790  0.41375246    -0.30800
H1935       H  0.52053844  0.84085875  0.43902728     0.13400
H1936       H  0.47495453  0.82768532  0.38433249     0.14000
C1937       C  0.47578905  0.70805018  0.16499375    -0.15600
C1938       C  0.49886373  0.71100736  0.17033933    -0.30800
H1939       H  0.46404608  0.72132814  0.18838434     0.13400
H1940       H  0.51032351  0.69741971  0.14671621     0.14000
C1941       C  0.56868551  0.78960466  0.08989840    -0.15600
C1942       C  0.57077936  0.80617303  0.13236020    -0.30800
H1943       H  0.56734473  0.76523144  0.09258970     0.13400
H1944       H  0.57278661  0.83045458  0.12943966     0.14000
C1945       C  0.67024324  0.79563132  0.13623821    -0.15600
C1946       C  0.66992841  0.81125875  0.09260587    -0.30800
H1947       H  0.67064728  0.77113646  0.13475422     0.13400
H1948       H  0.66891082  0.83572828  0.09382976     0.14000
C1949       C  0.62295596  0.81382725  0.32425247    -0.15600
C1950       C  0.61449695  0.78562796  0.32133979    -0.30800
H1951       H  0.61104843  0.83290198  0.32370394     0.13400
H1952       H  0.62634028  0.76676327  0.31574404     0.14000
C1953       C  0.72762820  0.78504747  0.42538415    -0.15600
C1954       C  0.74571859  0.76581939  0.41985143    -0.30800
H1955       H  0.72111200  0.79073685  0.46287427     0.13400
H1956       H  0.75291999  0.76250219  0.38209143     0.14000
C1957       C  0.74137033  0.73329457  0.24002996    -0.15600
C1958       C  0.75046654  0.76057297  0.24696745    -0.30800
H1959       H  0.72281254  0.72978012  0.23996308     0.13400
H1960       H  0.76900572  0.76414229  0.24718069     0.14000
C1961       C  0.54615130  0.66861470  0.36406581    -0.15600
C1962       C  0.52914170  0.68892719  0.35940399    -0.30800
H1963       H  0.56317800  0.67303815  0.34851645     0.13400
H1964       H  0.51239118  0.68471703  0.37657688     0.14000
C1965       C  0.50064367  0.65088952  0.54582271    -0.15600
C1966       C  0.47766249  0.65089566  0.55569871    -0.30800
H1967       H  0.51127461  0.66706251  0.56589505     0.13400
H1968       H  0.46699142  0.63370454  0.53841796     0.14000
C1969       C  0.51377769  0.53187104  0.30155025    -0.15600
C1970       C  0.49223625  0.52021574  0.30340796    -0.30800
H1971       H  0.52493752  0.52728858  0.26926569     0.13400
H1972       H  0.48194326  0.52447961  0.33726819     0.14000
C1973       C  0.50473712  0.97437549  0.48232121    -0.15600
C1974       C  0.49104696  0.50500899  0.47334098    -0.30800
H1975       H  0.52173063  0.96751211  0.46884536     0.13400
H1976       H  0.47249994  0.50857488  0.47606561     0.14000
C1977       C  0.71577328  0.93611374  0.37559803    -0.15600
C1978       C  0.69614645  0.92155539  0.36449444    -0.30800
H1979       H  0.73237694  0.92753799  0.36243368     0.13400
H1980       H  0.67941491  0.93061033  0.37578353     0.14000
C1981       C  0.62663964  0.53623036  0.40674003    -0.15600
C1982       C  0.61785410  0.56443206  0.40962724    -0.30800
H1983       H  0.61500961  0.51715510  0.40820775     0.13400
H1984       H  0.62953217  0.58324298  0.41477147     0.14000
C1985       C  0.73709010  0.59871071  0.30405595    -0.15600
C1986       C  0.73701538  0.56894573  0.31379859    -0.30800
H1987       H  0.72483553  0.61337557  0.32354592     0.13400
H1988       H  0.74904769  0.55442874  0.29330976     0.14000
C1989       C  0.74671508  0.60399210  0.49132345    -0.15600
C1990       C  0.73634994  0.63139102  0.49265796    -0.30800
H1991       H  0.76481302  0.60080932  0.50090716     0.13400
H1992       H  0.71873868  0.63492339  0.47971066     0.14000
C1993       C  0.53327934  0.93609628  0.86222166    -0.15600
C1994       C  0.54792944  0.91284526  0.85938704    -0.30800
H1995       H  0.51777458  0.93431482  0.88536161     0.13400
H1996       H  0.56384652  0.91447709  0.83771678     0.14000
C1997       C  0.49123206  0.60396759  0.73048248    -0.15600
C1998       C  0.49941330  0.63229100  0.73081079    -0.30800
H1999       H  0.47321891  0.59957235  0.72190230     0.13400
H2000       H  0.51747232  0.63696317  0.73827769     0.14000
C2001       C  0.50628754  0.57703923  0.91652589    -0.15600
C2002       C  0.48337192  0.58291014  0.91900464    -0.30800
H2003       H  0.51790927  0.58835303  0.94247083     0.13400
H2004       H  0.47221140  0.57323559  0.89025522     0.14000
C2005       C  0.56949031  0.56093727  0.63636623    -0.15600
C2006       C  0.56900020  0.54468085  0.59331688    -0.30800
H2007       H  0.57007104  0.58539525  0.63440286     0.13400
H2008       H  0.56903766  0.52020410  0.59536413     0.14000
C2009       C  0.47800866  0.95399314  0.66863582    -0.15600
C2010       C  0.50104091  0.95548936  0.67518658    -0.30800
H2011       H  0.46638761  0.96800008  0.69109527     0.13400
H2012       H  0.51239773  0.94141765  0.65212476     0.14000
C2013       C  0.71009920  0.68602247  0.87238772    -0.15600
C2014       C  0.69318116  0.66563474  0.87092594    -0.30800
H2015       H  0.72642074  0.68130573  0.85337310     0.13400
H2016       H  0.67650285  0.67051712  0.88817242     0.14000
C2017       C  0.67070820  0.54296288  0.63796945    -0.15600
C2018       C  0.67037701  0.55926398  0.59480640    -0.30800
H2019       H  0.67097895  0.51850157  0.63543332     0.13400
H2020       H  0.66950575  0.58371148  0.59699846     0.14000
C2021       C  0.62264825  0.56173796  0.82883754    -0.15600
C2022       C  0.61349817  0.53407150  0.82642172    -0.30800
H2023       H  0.61127400  0.58135522  0.82751274     0.13400
H2024       H  0.62484700  0.51463244  0.82138627     0.14000
C2025       C  0.73440586  0.64924514  0.68718161    -0.15600
C2026       C  0.75732170  0.65379518  0.68134183    -0.30800
H2027       H  0.72240827  0.66194491  0.66365067     0.13400
H2028       H  0.76960819  0.64123233  0.70429590     0.14000
C2029       C  0.19391488  0.70043376  0.37229422    -0.15600
C2030       C  0.21140341  0.68074024  0.36794663    -0.30800
H2031       H  0.17703944  0.69516343  0.35685089     0.13400
H2032       H  0.22796486  0.68563382  0.38533373     0.14000
C2033       C  0.23523015  0.71713123  0.55716850    -0.15600
C2034       C  0.25798874  0.71696752  0.56834418    -0.30800
H2035       H  0.22418342  0.70095824  0.57612163     0.13400
H2036       H  0.26906961  0.73391661  0.55163567     0.14000
C2037       C  0.24959658  0.83949310  0.31141242    -0.15600
C2038       C  0.22640357  0.83642078  0.31410822    -0.30800
H2039       H  0.26022842  0.82803929  0.33948597     0.13400
H2040       H  0.21533160  0.84968603  0.28936640     0.14000
C2041       C  0.24529441  0.86325709  0.49492012    -0.15600
C2042       C  0.23683556  0.89174950  0.49785708    -0.30800
H2043       H  0.26317226  0.85795601  0.50390680     0.13400
H2044       H  0.21937650  0.89734545  0.48592901     0.14000
C2045       C  0.03094733  0.93288957  0.37769374    -0.15600
C2046       C  0.04811364  0.95304757  0.37931697    -0.30800
H2047       H  0.01534768  0.93792668  0.35634395     0.13400
H2048       H  0.06407504  0.94787284  0.39917804     0.14000
C2049       C  0.12012837  0.80306454  0.41841751    -0.15600
C2050       C  0.11204600  0.83156373  0.41565948    -0.30800
H2051       H  0.10810775  0.78459964  0.42333197     0.13400
H2052       H  0.12399151  0.85029283  0.41765086     0.14000
C2053       C  0.98196584  0.79124360  0.30962009    -0.15600
C2054       C  0.00501825  0.79237244  0.31779640    -0.30800
H2055       H  0.97064299  0.80597736  0.33155747     0.13400
H2056       H  0.01631364  0.77681067  0.29749349     0.14000
C2057       C  0.99064891  0.76614374  0.50281931    -0.15600
C2058       C  0.99916477  0.73765983  0.50087020    -0.30800
H2059       H  0.97319445  0.77108533  0.51574823     0.13400
H2060       H  0.01619126  0.73261472  0.48552776     0.14000
C2061       C  0.19551037  0.92943996  0.87524751    -0.15600
C2062       C  0.21118144  0.95126239  0.87114998    -0.30800
H2063       H  0.17961476  0.93315739  0.89641346     0.13400
H2064       H  0.22666600  0.94746959  0.84850976     0.14000
C2065       C  0.17033704  0.82387671  0.60208803    -0.15600
C2066       C  0.17174046  0.80724096  0.64454203    -0.30800
H2067       H  0.16960758  0.84832131  0.60476077     0.13400
H2068       H  0.17176104  0.78278400  0.64171484     0.14000
C2069       C  0.25078636  0.76609976  0.75778497    -0.15600
C2070       C  0.24155775  0.73851273  0.75321712    -0.30800
H2071       H  0.26921809  0.76982465  0.75383401     0.13400
H2072       H  0.22311821  0.73501724  0.75787848     0.14000
C2073       C  0.22848127  0.78869429  0.93141008    -0.15600
C2074       C  0.25162613  0.78633070  0.93649617    -0.30800
H2075       H  0.21736741  0.77340162  0.95210699     0.13400
H2076       H  0.26262702  0.80056189  0.91339605     0.20400
C2077       C  0.23919219  0.90969200  0.69357502    -0.15600
C2078       C  0.26221188  0.91134891  0.68504629    -0.30800
H2079       H  0.22764785  0.92386905  0.67135556     0.13400
H2080       H  0.27408075  0.89715817  0.70633806     0.14000
C2081       C  0.02219037  0.68418547  0.88283650    -0.15600
C2082       C  0.04016423  0.70236124  0.87508626    -0.30800
H2083       H  0.00534992  0.68997698  0.86733834     0.13400
H2084       H  0.05726205  0.69592489  0.88834447     0.14000
C2085       C  0.06633508  0.80732423  0.59884987    -0.15600
C2086       C  0.06708620  0.82327696  0.64221366    -0.30800
H2087       H  0.06624114  0.78283854  0.60035084     0.13400
H2088       H  0.06791008  0.84772946  0.64045555     0.14000
C2089       C  0.11485593  0.79932765  0.82939590    -0.15600
C2090       C  0.12410082  0.82693704  0.83167113    -0.30800
H2091       H  0.12610093  0.77977086  0.82453288     0.13400
H2092       H  0.11285093  0.84666525  0.83008158     0.14000
C2093       C  0.99831862  0.72178509  0.68897721    -0.15600
C2094       C  0.97522969  0.71841751  0.68335941    -0.30800
H2095       H  0.00986500  0.70843091  0.66517735     0.13400
H2096       H  0.96327225  0.73162094  0.70633293     0.14000
C2097       C  0.94130729  0.80822087  0.12604419    -0.15600
C2098       C  0.95812268  0.82889251  0.12843550    -0.30800
H2099       H  0.92578704  0.81233645  0.10398258     0.13400
H2100       H  0.97287353  0.82509808  0.15313108     0.14000
C2101       C  0.00610705  0.96616192  0.19737734    -0.15600
C2102       C  0.98296223  0.96623317  0.18908269    -0.30800
H2103       H  0.01699656  0.95054086  0.17613359     0.13400
H2104       H  0.97184049  0.98164730  0.21012832     0.14000
C2105       C  0.00450390  0.99041580  0.00501587    -0.15600
C2106       C  0.99244320  0.50786916  0.97555184    -0.30800
H2107       H  0.02204490  0.98565365  0.99249435     0.13400
H2108       H  0.97375366  0.50996655  0.97808667     0.14000
C2109       C  0.01179516  0.84148559  0.93081865    -0.15600
C2110       C  0.98922238  0.84932865  0.93217902    -0.30800
H2111       H  0.02376397  0.85113137  0.95788615     0.13400
H2112       H  0.97795681  0.84099997  0.90241608     0.14000
C2113       C  0.77856607  0.56479735  0.12260140    -0.15600
C2114       C  0.79515233  0.54373996  0.12115865    -0.30800
H2115       H  0.76236667  0.56101240  0.10288222     0.13400
H2116       H  0.81176794  0.54776866  0.13888441     0.14000
C2117       C  0.75163865  0.52630000  0.93556648    -0.15600
C2118       C  0.72871770  0.52550212  0.92547895    -0.30800
H2119       H  0.76217312  0.54236443  0.91501338     0.13400
H2120       H  0.71825878  0.50833388  0.94343984     0.14000
C2121       C  0.86449019  0.95262207  0.08025256    -0.15600
C2122       C  0.87588619  0.92589785  0.08344279    -0.30800
H2123       H  0.87422565  0.97340901  0.07792099     0.13400
H2124       H  0.86617275  0.90504733  0.08293409     0.14000
C2125       C  0.75889717  0.90536162  0.17578867    -0.15600
C2126       C  0.73584851  0.90101426  0.18008752    -0.30800
H2127       H  0.77076522  0.89306627  0.20016222     0.13400
H2128       H  0.72427938  0.91336949  0.15506316     0.14000
C2129       C  0.74667852  0.85476362  0.99454477    -0.15600
C2130       C  0.73828515  0.88317873  0.99227114    -0.30800
H2131       H  0.76422714  0.84999393  0.00683471     0.13400
H2132       H  0.72120150  0.88803436  0.97725011     0.14000
C2133       C  0.95382572  0.57848122  0.62986795    -0.15600
C2134       C  0.95468549  0.55055104  0.61041409    -0.30800
H2135       H  0.95506840  0.58190665  0.67061318     0.13400
H2136       H  0.95625066  0.54716932  0.56969807     0.14000
C2137       C  0.98910644  0.53701182  0.80627720    -0.15600
C2138       C  0.01132755  0.54579270  0.80652460    -0.30800
H2139       H  0.98082021  0.05806612  0.82400338     0.13400
H2140       H  0.02353441  0.53638899  0.77933409     0.14000
C2141       C  0.92147423  0.94237528  0.86459177    -0.15600
C2142       C  0.92599222  0.95938783  0.90569600    -0.30800
H2143       H  0.91765501  0.91859514  0.86928190     0.13400
H2144       H  0.93011175  0.98307497  0.90093005     0.14000
C2145       C  0.97499062  0.91468834  0.57427908    -0.15600
C2146       C  0.99774595  0.91341046  0.56375769    -0.30800
H2147       H  0.96348424  0.89845778  0.55695579     0.13400
H2148       H  0.00914557  0.92872017  0.58374619     0.14000
C2149       C  0.99908693  0.89416343  0.74914926    -0.15600
C2150       C  0.99000740  0.86646600  0.75348182    -0.30800
H2151       H  0.01761202  0.89773381  0.75058246     0.13400
H2152       H  0.97147759  0.86296906  0.75164642     0.14000
C2153       C  0.79532035  0.81227170  0.62210073    -0.15600
C2154       C  0.77794328  0.79247179  0.62175336    -0.30800
H2155       H  0.81106870  0.80786249  0.60077766     0.13400
H2156       H  0.76299609  0.79620776  0.64608445     0.14000
C2157       C  0.75833888  0.94574721  0.56878455    -0.15600
C2158       C  0.75622542  0.97573624  0.56206629    -0.30800
H2159       H  0.74888620  0.93073130  0.54385355     0.13400
H2160       H  0.76616837  0.99096273  0.58561797     0.14000
C2161       C  0.74079399  0.97528939  0.74048688    -0.15600
C2162       C  0.75050639  0.50506188  0.74763851    -0.30800
H2163       H  0.72218803  0.97243801  0.73992716     0.13400
H2164       H  0.76878344  0.51021979  0.74517362     0.14000
C2165       C  0.82126894  0.93364092  0.85477602    -0.15600
C2166       C  0.81834173  0.91675359  0.89659941    -0.30800
H2167       H  0.82341625  0.95786688  0.85844255     0.13400
H2168       H  0.81572549  0.89262311  0.89261817     0.14000
C2169       C  0.86657034  0.92428232  0.66940021    -0.15600
C2170       C  0.87315342  0.95295363  0.67840729    -0.30800
H2171       H  0.87954200  0.90651337  0.66648251     0.13400
H2172       H  0.86017733  0.97005451  0.68712316     0.14000
C2173       C  0.73228392  0.82790000  0.81323017    -0.15600
C2174       C  0.75540570  0.82921270  0.80704476    -0.30800
H2175       H  0.72124382  0.84367797  0.79293892     0.13400
H2176       H  0.76640609  0.81421752  0.82907531     0.14000
loop_ 
_geom_bond_atom_site_label_1 
_geom_bond_atom_site_label_2 
_geom_bond_distance 
_geom_bond_site_symmetry_2 
_ccdc_geom_bond_type 
O1           C16   1.270       .  A
O1           Al9   1.930       .  S
C2           O12   1.261       .  A
C2            O3   1.263       .  A
C2         C1077   1.473       .  S
O3           Al5   1.903       .  S
O4            C6   1.262       .  A
O4           Al5   1.927       .  S
Al5          O13   1.924       .  S
Al5          O15   1.886       .  S
Al5          O14   1.780       .  S
C6           O19   1.261       .  A
C6         C1086   1.491       .  S
O7           C17   1.263       .  A
O7           Al9   1.913       .  S
O8           C21   1.257       .  A
O8          Al18   1.901       .  S
Al9          O22   1.917       .  S
Al9          O19   1.917       .  S
Al9          O14   1.790       .  S
O10          C17   1.254       .  A
O10         Al18   1.845       .  S
O11          C20   1.256       .  A
O11         Al18   1.880       .  S
O12         Al18   1.918       .  S
O13          C20   1.265       .  A
O14         Al18   1.787       .  S
O15          C16   1.261       .  A
C16        C1065   1.465       .  S
C17        C1073   1.448       .  S
C20        C1081   1.462       .  S
C21          O22   1.266       .  A
C21        C1069   1.479       .  S
O23          C38   1.271       .  A
O23       Al1119   1.933   1_545  S
C24          O34   1.261       .  A
C24          O25   1.265       .  A
C24        C1053   1.486       .  S
O25         Al27   1.922       .  S
O26          C28   1.266       .  A
O26       Al1115   1.943   1_545  S
Al27         O35   1.914       .  S
Al27       O1114   1.889       .  S
Al27       O1125   1.912       .  S
Al27         O36   1.796       .  S
C28        O1129   1.261   1_545  A
C28        C1049   1.496       .  S
O29          C39   1.268       .  A
O29         Al31   1.920       .  S
O30          C43   1.263       .  A
O30         Al40   1.925       .  S
Al31         O44   1.911       .  S
Al31         O41   1.923       .  S
Al31       O1111   1.897       .  S
Al31         O36   1.798       .  S
O32          C39   1.254       .  A
O32         Al40   1.845       .  S
O33          C42   1.248       .  A
O33         Al40   1.849       .  S
O34         Al40   1.901       .  S
O35          C42   1.257       .  A
O36         Al40   1.794       .  S
O37          C38   1.261       .  A
O37       Al1115   1.884   1_545  S
C38        C1046   1.466       .  S
C39        C1061   1.459   1_655  S
O41        C1116   1.255       .  A
C42        C1082   1.475       .  S
C43          O44   1.260       .  A
C43        C1057   1.493       .  S
O45          C60   1.266   1_565  A
O45       Al1141   1.894       .  S
C46          O56   1.263       .  A
C46          O47   1.264       .  A
C46        C1078   1.474       .  S
O47         Al49   1.900   1_556  S
O48          C50   1.254   1_565  A
O48       Al1137   1.904   1_556  S
Al49         O57   1.928       .  S
Al49       O1136   1.938   1_554  S
Al49       O1147   1.870       .  S
Al49         O58   1.782       .  S
C50        O1151   1.254   1_545  A
C50        C1029   1.490       .  S
O51          C61   1.263       .  A
O51         Al53   1.914       .  S
O52          C65   1.259       .  A
O52         Al62   1.914       .  S
Al53         O66   1.919       .  S
Al53         O63   1.924   1_554  S
Al53       O1133   1.935       .  S
Al53         O58   1.795       .  S
O54          C61   1.253       .  A
O54         Al62   1.829       .  S
O55          C64   1.258       .  A
O55         Al62   1.890       .  S
O56         Al62   1.925   1_556  S
O57          C64   1.265       .  A
O58         Al62   1.786       .  S
O59          C60   1.269       .  A
O59       Al1137   1.908   1_545  S
C60        C1026   1.470       .  S
C61        C1042   1.446   1_554  S
O63        C1138   1.259       .  A
C64        C1033   1.468       .  S
C65          O66   1.264       .  A
C65        C1037   1.491       .  S
O67          C82   1.266       .  A
O67         Al75   1.883       .  S
C68          O78   1.261       .  A
C68          O69   1.265       .  A
C68        C1054   1.486       .  S
O69         Al71   1.921   1_556  S
O70          C72   1.254       .  A
O70         Al71   1.903   1_556  S
Al71         O79   1.924       .  S
Al71         O81   1.907       .  S
Al71         O80   1.794       .  S
C72          O85   1.252   1_556  A
C72        C1022   1.489       .  S
O73          C83   1.262       .  A
O73         Al75   1.898       .  S
O74          C87   1.261       .  A
O74         Al84   1.921       .  S
Al75         O88   1.921       .  S
Al75         O85   1.912       .  S
Al75         O80   1.806       .  S
O76          C83   1.255       .  A
O76         Al84   1.838       .  S
O77          C86   1.247       .  A
O77         Al84   1.852       .  S
O78         Al84   1.901   1_556  S
O79          C86   1.258       .  A
O80         Al84   1.795       .  S
O81          C82   1.271       .  A
C82        C1010   1.462       .  S
C83        C1017   1.446   1_654  S
C86        C1034   1.481       .  S
C87          O88   1.261       .  A
C87        C1014   1.495       .  S
O89         C104   1.261       .  A
O89         Al97   1.902       .  S
C90         O100   1.265       .  A
C90          O91   1.271       .  A
C90         C998   1.482       .  S
O91         Al93   1.945       .  S
O92          C94   1.250       .  A
O92         Al93   1.833       .  S
Al93        O101   1.893       .  S
Al93        O103   1.922       .  S
Al93        O102   1.790       .  S
C94         O107   1.265       .  A
C94        C1062   1.449       .  S
O95         C105   1.259       .  A
O95         Al97   1.923       .  S
O96         C109   1.263       .  A
O96        Al106   1.877       .  S
Al97        O110   1.937       .  S
Al97        O107   1.916       .  S
Al97        O102   1.790       .  S
O98         C105   1.259       .  A
O98        Al106   1.930       .  S
O99         C108   1.262       .  A
O99        Al106   1.932       .  S
O100       Al106   1.891       .  S
O101        C108   1.255       .  A
O102       Al106   1.785       .  S
O103        C104   1.262       .  A
C104       C1021   1.487       .  S
C105       C1005   1.496       .  S
C108       C1001   1.478       .  S
C109        O110   1.274       .  A
C109        C994   1.461       .  S
O111        C126   1.258       .  A
O111       Al119   1.895       .  S
C112        O122   1.265       .  A
C112        O113   1.268       .  A
C112        C978   1.481       .  S
O113       Al115   1.938       .  S
O114        C116   1.250       .  A
O114       Al115   1.837       .  S
Al115       O123   1.898       .  S
Al115       O125   1.951       .  S
Al115       O124   1.785       .  S
C116        O129   1.266       .  A
C116        C981   1.458       .  S
O117        C127   1.261       .  A
O117       Al119   1.911       .  S
O118        C131   1.266       .  A
O118       Al128   1.888       .  S
Al119       O132   1.926       .  S
Al119       O129   1.934       .  S
Al119       O124   1.783       .  S
O120        C127   1.260       .  A
O120       Al128   1.923       .  S
O121        C130   1.264       .  A
O121       Al128   1.928       .  S
O122       Al128   1.899       .  S
O123        C130   1.261       .  A
O124       Al128   1.782       .  S
O125        C126   1.269       .  A
C126        C985   1.492       .  S
C127        C989   1.484       .  S
C130       C1002   1.474       .  S
C131        O132   1.269       .  A
C131        C973   1.467       .  S
O133        C148   1.266       .  A
O133       Al141   1.927       .  S
C134        O144   1.263       .  A
C134        O135   1.264       .  A
C134        C997   1.479       .  S
O135       Al137   1.930       .  S
O136        C138   1.256       .  A
O136       Al137   1.842       .  S
Al137       O145   1.891       .  S
Al137       O147   1.915       .  S
Al137       O146   1.783       .  S
C138        O151   1.263       .  A
C138        C969   1.450   1_455  S
O139        C149   1.258       .  A
O139       Al141   1.918       .  S
O140        C153   1.258       .  A
O140       Al150   1.873       .  S
Al141       O154   1.940       .  S
Al141       O151   1.911       .  S
Al141       O146   1.797       .  S
O142        C149   1.258       .  A
O142       Al150   1.911       .  S
O143        C152   1.262       .  A
O143       Al150   1.917       .  S
O144       Al150   1.907       .  S
O145        C152   1.259       .  A
O146       Al150   1.788       .  S
O147        C148   1.259       .  A
C148        C966   1.497       .  S
C149       C1058   1.485       .  S
C152        C962   1.466       .  S
C153        O154   1.273       .  A
C153        C957   1.464       .  S
O155        C170   1.263       .  A
O155       Al163   1.918       .  S
C156        O166   1.265       .  A
C156        O157   1.266       .  A
C156        C977   1.479       .  S
O157       Al159   1.933       .  S
O158        C160   1.252       .  A
O158       Al159   1.831       .  S
Al159       O167   1.887       .  S
Al159       O169   1.922       .  S
Al159       O168   1.781       .  S
C160        O173   1.265       .  A
C160        C953   1.448       .  S
O161        C171   1.262       .  A
O161       Al163   1.931       .  S
O162        C175   1.259       .  A
O162       Al172   1.871       .  S
Al163       O176   1.927       .  S
Al163       O173   1.920       .  S
Al163       O168   1.791       .  S
O164        C171   1.260       .  A
O164       Al172   1.924       .  S
O165        C174   1.263       .  A
O165       Al172   1.923       .  S
O166       Al172   1.907       .  S
O167        C174   1.258       .  A
O168       Al172   1.783       .  S
O169        C170   1.260       .  A
C170        C950   1.490       .  S
C171        C945   1.497       .  S
C174        C961   1.467       .  S
C175        O176   1.273       .  A
C175        C941   1.460       .  S
O177        C192   1.264       .  A
O177       Al185   1.911       .  S
C178        O188   1.262       .  A
C178        O179   1.266       .  A
C178        C929   1.474       .  S
O179       Al181   1.932       .  S
O180        C182   1.251       .  A
O180       Al181   1.841       .  S
Al181       O189   1.883       .  S
Al181       O191   1.926       .  S
Al181       O190   1.782       .  S
C182        O195   1.266       .  A
C182       C1074   1.452       .  S
O183        C193   1.262       .  A
O183       Al185   1.924       .  S
O184        C197   1.261       .  A
O184       Al194   1.878       .  S
Al185       O198   1.934       .  S
Al185       O195   1.926       .  S
Al185       O190   1.791       .  S
O186        C193   1.264       .  A
O186       Al194   1.931       .  S
O187        C196   1.267       .  A
O187       Al194   1.941       .  S
O188       Al194   1.895       .  S
O189        C196   1.256       .  A
O190       Al194   1.779       .  S
O191        C192   1.262       .  A
C192       C1030   1.485       .  S
C193        C937   1.491       .  S
C196        C933   1.474       .  S
C197        O198   1.272       .  A
C197        C926   1.463       .  S
O199        C214   1.260       .  A
O199       Al207   1.902       .  S
C200        O210   1.265       .  A
C200        O201   1.261       .  A
C200        C917   1.487       .  S
O201       Al203   1.923       .  S
O202        C204   1.253       .  A
O202       Al203   1.833       .  S
Al203       O211   1.878       .  S
Al203       O213   1.915       .  S
Al203       O212   1.782       .  S
C204        O217   1.257       .  A
C204        C909   1.435       .  S
O205       C1303   1.257       .  A
O205       Al207   1.901   1_565  S
O206        C219   1.268       .  A
O206      Al1304   1.883       .  S
Al207       O217   1.888       .  S
Al207      O1308   1.883   1_545  S
Al207       O212   1.797       .  S
O208        C215   1.252       .  A
O208      Al1304   1.902       .  S
O209        C218   1.268       .  A
O209       Al216   1.944   1_545  S
O210       Al216   1.931   1_545  S
O211        C218   1.258       .  A
O212       Al216   1.783   1_545  S
O213        C214   1.258       .  A
C214        C913   1.479       .  S
C215       O1293   1.258       .  A
C215        C922   1.491       .  S
Al216      O1294   1.904       .  S
Al216      O1296   1.898       .  S
C218        C934   1.474       .  S
C219        O220   1.270       .  A
C219        C905   1.465       .  S
O220      Al1295   1.918       .  S
O221        C236   1.258       .  A
O221       Al229   1.894       .  S
C222        O232   1.263       .  A
C222        O223   1.270       .  A
C222        C930   1.476       .  S
O223       Al225   1.948       .  S
O224        C226   1.251       .  A
O224       Al225   1.833       .  S
Al225       O233   1.894       .  S
Al225       O235   1.956       .  S
Al225       O234   1.779       .  S
C226        O239   1.263       .  A
C226        C901   1.444       .  S
O227       C1325   1.255   1_545  A
O227       Al229   1.895       .  S
O228        C241   1.269       .  A
O228      Al1326   1.895       .  S
Al229       O239   1.920       .  S
Al229      O1330   1.928   1_545  S
Al229       O234   1.777       .  S
O230        C237   1.260       .  A
O230      Al1326   1.923       .  S
O231        C240   1.267       .  A
O231       Al238   1.938   1_545  S
O232       Al238   1.878   1_545  S
O233        C240   1.262       .  A
O234       Al238   1.779   1_545  S
O235        C236   1.270       .  A
C236        C898   1.491       .  S
C237       O1315   1.262       .  A
C237       C1070   1.484       .  S
Al238      O1316   1.859       .  S
Al238      O1318   1.963       .  S
C240        C893   1.477       .  S
C241        O242   1.263       .  A
C241        C889   1.455       .  S
O242      Al1317   1.894       .  S
O243        C258   1.261       .  A
O243       Al251   1.915       .  S
C244        O254   1.267       .  A
C244        O245   1.269       .  A
C244        C918   1.490       .  S
O245       Al247   1.942       .  S
O246        C248   1.251       .  A
O246       Al247   1.826       .  S
Al247       O255   1.897       .  S
Al247       O257   1.920       .  S
Al247       O256   1.797       .  S
C248        O261   1.264       .  A
C248        C886   1.448       .  S
O249        C259   1.256       .  A
O249       Al251   1.921       .  S
O250        C263   1.265       .  A
O250       Al260   1.886       .  S
Al251       O264   1.936       .  S
Al251       O261   1.911       .  S
Al251       O256   1.799       .  S
O252        C259   1.256       .  A
O252       Al260   1.920       .  S
O253        C262   1.261       .  A
O253       Al260   1.924       .  S
O254       Al260   1.910       .  S
O255        C262   1.257       .  A
O256       Al260   1.790       .  S
O257        C258   1.261       .  A
C258        C881   1.500       .  S
C259        C877   1.497       .  S
C262        C894   1.475       .  S
C263        O264   1.276       .  A
C263        C873   1.470       .  S
O265        C280   1.262       .  A
O265       Al273   1.915       .  S
C266        O276   1.264       .  A
C266        O267   1.264       .  A
C266        C857   1.480       .  S
O267       Al269   1.931       .  S
O268        C270   1.254       .  A
O268       Al269   1.827       .  S
Al269       O277   1.886       .  S
Al269       O279   1.920       .  S
Al269       O278   1.781       .  S
C270        O283   1.263       .  A
C270        C870   1.446       .  S
O271        C281   1.259       .  A
O271       Al273   1.916       .  S
O272        C285   1.258       .  A
O272       Al282   1.872       .  S
Al273       O286   1.915       .  S
Al273       O283   1.913       .  S
Al273       O278   1.792       .  S
O274        C281   1.261       .  A
O274       Al282   1.931       .  S
O275        C284   1.265       .  A
O275       Al282   1.927       .  S
O276       Al282   1.906       .  S
O277        C284   1.259       .  A
O278       Al282   1.784       .  S
O279        C280   1.259       .  A
C280        C865   1.489       .  S
C281       C1038   1.496       .  S
C284        C861   1.465       .  S
C285        O286   1.272       .  A
C285        C890   1.459       .  S
O287        C302   1.263       .  A
O287       Al295   1.914       .  S
C288        O298   1.264       .  A
C288        O289   1.266       .  A
C288        C854   1.485       .  S
O289       Al291   1.935       .  S
O290        C292   1.252       .  A
O290       Al291   1.842       .  S
Al291       O299   1.879       .  S
Al291       O301   1.909       .  S
Al291       O300   1.789       .  S
C292        O305   1.263       .  A
C292        C841   1.445       .  S
O293        C303   1.259       .  A
O293       Al295   1.917       .  S
O294        C307   1.268       .  A
O294       Al304   1.896       .  S
Al295       O308   1.920       .  S
Al295       O305   1.907       .  S
Al295       O300   1.792       .  S
O296        C303   1.255       .  A
O296       Al304   1.894       .  S
O297        C306   1.262       .  A
O297       Al304   1.927       .  S
O298       Al304   1.911       .  S
O299        C306   1.255       .  A
O300       Al304   1.789       .  S
O301        C302   1.258       .  A
C302        C845   1.486       .  S
C303        C850   1.475       .  S
C306        C862   1.469       .  S
C307        O308   1.268       .  A
C307        C874   1.472       .  S
O309        C324   1.262       .  A
O309       Al317   1.913       .  S
C310        O320   1.265       .  A
C310        O311   1.264       .  A
C310        C858   1.480       .  S
O311       Al313   1.927   1_554  S
O312        C314   1.252       .  A
O312       Al313   1.837       .  S
Al313       O321   1.888       .  S
Al313       O323   1.911       .  S
Al313       O322   1.790       .  S
C314        O327   1.261       .  A
C314       C1041   1.441       .  S
O315        C325   1.258   1_556  A
O315       Al317   1.918       .  S
O316        C329   1.267       .  A
O316       Al326   1.885       .  S
Al317       O330   1.916       .  S
Al317       O327   1.898       .  S
Al317       O322   1.794       .  S
O318        C325   1.256       .  A
O318       Al326   1.910   1_554  S
O319        C328   1.264       .  A
O319       Al326   1.932       .  S
O320       Al326   1.909   1_554  S
O321        C328   1.258       .  A
O322       Al326   1.786       .  S
O323        C324   1.258       .  A
C324       C1085   1.488       .  S
C325        C837   1.486       .  S
C328        C833   1.475       .  S
C329        O330   1.268       .  A
C329        C925   1.467       .  S
O331        C346   1.259       .  A
O331       Al339   1.897       .  S
C332        O342   1.263       .  A
C332        O333   1.268   1_554  A
C332        C853   1.487       .  S
O333       Al335   1.945       .  S
O334        C336   1.251       .  A
O334       Al335   1.827       .  S
Al335       O343   1.894       .  S
Al335       O345   1.953       .  S
Al335       O344   1.786       .  S
C336        O349   1.266       .  A
C336        C826   1.443       .  S
O337        C347   1.260   1_556  A
O337       Al339   1.911       .  S
O338        C351   1.261       .  A
O338       Al348   1.887       .  S
Al339       O352   1.919       .  S
Al339       O349   1.927       .  S
Al339       O344   1.787       .  S
O340        C347   1.264       .  A
O340       Al348   1.928   1_554  S
O341        C350   1.266       .  A
O341       Al348   1.929       .  S
O342       Al348   1.903   1_554  S
O343        C350   1.261       .  A
O344       Al348   1.776       .  S
O345        C346   1.267       .  A
C346        C829   1.492       .  S
C347        C821   1.485       .  S
C350        C834   1.472       .  S
C351        O352   1.268       .  A
C351        C906   1.465       .  S
O353        C368   1.263       .  A
O353       Al361   1.870       .  S
C354        O364   1.258       .  A
C354        O355   1.266       .  A
C354        C814   1.479       .  S
O355       Al357   1.925       .  S
O356        C358   1.256       .  A
O356       Al357   1.909       .  S
Al357       O365   1.916       .  S
Al357       O367   1.918       .  S
Al357       O366   1.785       .  S
C358        O371   1.256       .  A
C358        C949   1.495       .  S
O359        C369   1.260       .  A
O359       Al361   1.884       .  S
O360        C373   1.267       .  A
O360       Al370   1.927       .  S
Al361       O374   1.929       .  S
Al361       O371   1.929       .  S
Al361       O366   1.801       .  S
O362        C369   1.260       .  A
O362       Al370   1.863       .  S
O363        C372   1.254       .  A
O363       Al370   1.896       .  S
O364       Al370   1.887       .  S
O365        C372   1.260       .  A
O366       Al370   1.795       .  S
O367        C368   1.272       .  A
C368        C801   1.459       .  S
C369        C805   1.442       .  S
C372        C817   1.487       .  S
C373        O374   1.264       .  A
C373        C809   1.498       .  S
O375        C390   1.271       .  A
O375      Al1471   1.936   1_545  S
C376        O386   1.259       .  A
C376        O377   1.265       .  A
C376        C797   1.479       .  S
O377       Al379   1.916       .  S
O378        C380   1.265       .  A
O378      Al1467   1.943   1_545  S
Al379       O387   1.917       .  S
Al379      O1466   1.910       .  S
Al379      O1477   1.923       .  S
Al379       O388   1.788       .  S
C380       O1481   1.260   1_545  A
C380        C882   1.502       .  S
O381        C391   1.269       .  A
O381       Al383   1.915       .  S
O382        C395   1.266       .  A
O382       Al392   1.929       .  S
Al383       O396   1.912       .  S
Al383       O393   1.936       .  S
Al383      O1463   1.895       .  S
Al383       O388   1.799       .  S
O384        C391   1.257       .  A
O384       Al392   1.856       .  S
O385        C394   1.253       .  A
O385       Al392   1.889       .  S
O386       Al392   1.891       .  S
O387        C394   1.260       .  A
O388       Al392   1.798       .  S
O389        C390   1.258       .  A
O389      Al1467   1.878   1_545  S
C390        C793   1.462       .  S
C391        C842   1.457       .  S
O393       C1468   1.256       .  A
C394        C818   1.487       .  S
C395        O396   1.261       .  A
C395        C822   1.494       .  S
O397        C412   1.266       .  A
O397      Al1493   1.897   1_545  S
C398        O408   1.265       .  A
C398        O399   1.264       .  A
C398        C813   1.481       .  S
O399       Al401   1.903       .  S
O400        C402   1.255       .  A
O400      Al1489   1.900   1_545  S
Al401       O409   1.936       .  S
Al401      O1488   1.930       .  S
Al401      O1499   1.878       .  S
Al401       O410   1.778       .  S
C402       O1503   1.254       .  A
C402        C785   1.485       .  S
O403        C413   1.265       .  A
O403       Al405   1.917       .  S
O404        C417   1.259       .  A
O404       Al414   1.916       .  S
Al405       O418   1.908       .  S
Al405       O415   1.907       .  S
Al405      O1485   1.923       .  S
Al405       O410   1.786       .  S
O406        C413   1.252       .  A
O406       Al414   1.837       .  S
O407        C416   1.255       .  A
O407       Al414   1.870       .  S
O408       Al414   1.936       .  S
O409        C416   1.266       .  A
O410       Al414   1.777       .  S
O411        C412   1.270       .  A
O411      Al1489   1.916   1_545  S
C412        C781   1.476       .  S
C413        C954   1.444       .  S
O415       C1490   1.260       .  A
C416        C789   1.462       .  S
C417        O418   1.263       .  A
C417        C990   1.480       .  S
O419        C434   1.271       .  A
O419       Al427   1.928       .  S
C420        O430   1.265       .  A
C420        O421   1.264       .  A
C420        C798   1.478       .  S
O421       Al423   1.904       .  S
O422        C424   1.261       .  A
O422       Al423   1.925       .  S
Al423       O431   1.933       .  S
Al423       O433   1.879       .  S
Al423       O432   1.781       .  S
C424        O437   1.262       .  A
C424        C846   1.489       .  S
O425        C435   1.264       .  A
O425       Al427   1.916       .  S
O426        C439   1.259       .  A
O426       Al436   1.914       .  S
Al427       O440   1.922       .  S
Al427       O437   1.921       .  S
Al427       O432   1.786       .  S
O428        C435   1.252       .  A
O428       Al436   1.841       .  S
O429        C438   1.254       .  A
O429       Al436   1.870       .  S
O430       Al436   1.933       .  S
O431        C438   1.264       .  A
O432       Al436   1.778       .  S
O433        C434   1.261       .  A
C434        C777   1.461       .  S
C435        C885   1.447       .  S
C438        C790   1.462       .  S
C439        O440   1.266       .  A
C439        C921   1.488       .  S
O441        C456   1.269       .  A
O441       Al449   1.932       .  S
C442        O452   1.265       .  A
C442        O443   1.265       .  A
C442        C769   1.479       .  S
O443       Al445   1.904       .  S
O444        C446   1.270       .  A
O444       Al445   1.971       .  S
Al445       O453   1.952       .  S
Al445       O455   1.881       .  S
Al445       O454   1.781       .  S
C446        O459   1.253       .  A
C446        C897   1.486       .  S
O447        C457   1.261       .  A
O447       Al449   1.898       .  S
O448        C461   1.261       .  A
O448       Al458   1.924       .  S
Al449       O462   1.907       .  S
Al449       O459   1.885       .  S
Al449       O454   1.779       .  S
O450        C457   1.254       .  A
O450       Al458   1.844       .  S
O451        C460   1.257       .  A
O451       Al458   1.870       .  S
O452       Al458   1.933       .  S
O453        C460   1.270       .  A
O454       Al458   1.780       .  S
O455        C456   1.259       .  A
C456       C1025   1.462       .  S
C457        C869   1.435       .  S
C460        C773   1.470       .  S
C461        O462   1.265       .  A
C461        C838   1.484       .  S
O463        C478   1.271       .  A
O463       Al471   1.927       .  S
C464        O474   1.261       .  A
C464        O465   1.265       .  A
C464        C757   1.469       .  S
O465       Al467   1.902       .  S
O466        C468   1.264       .  A
O466       Al467   1.939       .  S
Al467       O475   1.937       .  S
Al467       O477   1.875       .  S
Al467       O476   1.779       .  S
C468        O481   1.263       .  A
C468        C965   1.502       .  S
O469        C479   1.266       .  A
O469       Al471   1.926       .  S
O470        C483   1.257       .  A
O470       Al480   1.903       .  S
Al471       O484   1.920       .  S
Al471       O481   1.930       .  S
Al471       O476   1.792       .  S
O472        C479   1.252       .  A
O472       Al480   1.834       .  S
O473        C482   1.256       .  A
O473       Al480   1.876       .  S
O474       Al480   1.915       .  S
O475        C482   1.266       .  A
O476       Al480   1.780       .  S
O477        C478   1.259       .  A
C478       C1009   1.455       .  S
C479        C761   1.451   1_655  S
C482        C774   1.466       .  S
C483        O484   1.265       .  A
C483        C766   1.483       .  S
O485        C500   1.269       .  A
O485       Al493   1.894       .  S
C486        O496   1.260       .  A
C486        O487   1.266       .  A
C486        C770   1.479       .  S
O487       Al489   1.915       .  S
O488        C490   1.254       .  A
O488       Al489   1.913       .  S
Al489       O497   1.923       .  S
Al489       O499   1.914       .  S
Al489       O498   1.794       .  S
C490        O503   1.251       .  A
C490        C866   1.495       .  S
O491        C501   1.264       .  A
O491       Al493   1.902       .  S
O492        C505   1.264       .  A
O492       Al502   1.927       .  S
Al493       O506   1.920       .  S
Al493       O503   1.912       .  S
Al493       O498   1.801       .  S
O494        C501   1.256       .  A
O494       Al502   1.853       .  S
O495        C504   1.250       .  A
O495       Al502   1.876       .  S
O496       Al502   1.893       .  S
O497        C504   1.259       .  A
O498       Al502   1.803       .  S
O499        C500   1.272       .  A
C500       C1066   1.470       .  S
C501        C902   1.449       .  S
C504        C753   1.489       .  S
C505        O506   1.261       .  A
C505        C938   1.498       .  S
O507        C522   1.270       .  A
O507       Al515   1.925       .  S
C508        O518   1.262       .  A
C508        O509   1.265       .  A
C508        C758   1.470       .  S
O509       Al511   1.896       .  S
O510        C512   1.258       .  A
O510       Al511   1.923       .  S
Al511       O519   1.928       .  S
Al511       O521   1.885       .  S
Al511       O520   1.789       .  S
C512        O525   1.258       .  A
C512        C749   1.498       .  S
O513        C523   1.260       .  A
O513       Al515   1.893       .  S
O514        C527   1.260       .  A
O514       Al524   1.911       .  S
Al515       O528   1.918       .  S
Al515       O525   1.931       .  S
Al515       O520   1.795       .  S
O516        C523   1.253       .  A
O516       Al524   1.847       .  S
O517        C526   1.259       .  A
O517       Al524   1.900       .  S
O518       Al524   1.917       .  S
O519        C526   1.263       .  A
O520       Al524   1.799       .  S
O521        C522   1.267       .  A
C522       C1045   1.470       .  S
C523        C970   1.447   1_655  S
C526        C754   1.480       .  S
C527        O528   1.264       .  A
C527       C1006   1.494       .  S
O529        C544   1.269       .  A
O529       Al537   1.914       .  S
C530        O540   1.256       .  A
C530        O531   1.269       .  A
C530        C741   1.484       .  S
O531       Al533   1.948       .  S
O532        C534   1.249       .  A
O532       Al533   1.845       .  S
Al533       O541   1.879       .  S
Al533       O543   1.952       .  S
Al533       O542   1.781       .  S
C534        O547   1.260       .  A
C534        C762   1.444   1_455  S
O535       C1633   1.261   1_545  A
O535       Al537   1.908       .  S
O536        C549   1.274       .  A
O536      Al1634   1.900       .  S
Al537       O547   1.912       .  S
Al537      O1638   1.929   1_545  S
Al537       O542   1.795       .  S
O538        C545   1.253       .  A
O538      Al1634   1.901       .  S
O539        C548   1.269       .  A
O539       Al546   1.948       .  S
O540       Al546   1.884       .  S
O541        C548   1.256       .  A
O542       Al546   1.777       .  S
O543        C544   1.270       .  A
C544        C750   1.497       .  S
C545       O1623   1.257       .  A
C545       C1013   1.487       .  S
Al546      O1624   1.887   1_545  S
Al546      O1626   1.950   1_545  S
C548        C746   1.478       .  S
C549        O550   1.268       .  A
C549        C958   1.467       .  S
O550      Al1625   1.908       .  S
O551        C566   1.263       .  A
O551       Al559   1.903       .  S
C552        O562   1.267       .  A
C552        O553   1.267       .  A
C552        C737   1.485       .  S
O553       Al555   1.937       .  S
O554        C556   1.252       .  A
O554       Al555   1.834       .  S
Al555       O563   1.873       .  S
Al555       O565   1.924       .  S
Al555       O564   1.781       .  S
C556        O569   1.255       .  A
C556        C806   1.428       .  S
O557        C567   1.257       .  A
O557       Al559   1.900       .  S
O558        C571   1.268       .  A
O558       Al568   1.896       .  S
Al559       O572   1.901       .  S
Al559       O569   1.882       .  S
Al559       O564   1.785       .  S
O560        C567   1.267       .  A
O560       Al568   1.956       .  S
O561        C570   1.270       .  A
O561       Al568   1.960       .  S
O562       Al568   1.913       .  S
O563        C570   1.255       .  A
O564       Al568   1.787       .  S
O565        C566   1.262       .  A
C566        C786   1.480       .  S
C567        C734   1.484       .  S
C570        C745   1.480       .  S
C571        O572   1.262       .  A
C571        C942   1.461       .  S
O573        C588   1.265       .  A
O573       Al581   1.905       .  S
C574        O584   1.258       .  A
C574        O575   1.273       .  A
C574        C742   1.482       .  S
O575       Al577   1.956   1_554  S
O576        C578   1.249       .  A
O576       Al577   1.843       .  S
Al577       O585   1.890       .  S
Al577       O587   1.950       .  S
Al577       O586   1.788       .  S
C578        O591   1.260       .  A
C578       C1018   1.448   1_456  S
O579        C589   1.264   1_556  A
O579       Al581   1.919       .  S
O580        C593   1.264       .  A
O580       Al590   1.880       .  S
Al581       O594   1.922       .  S
Al581       O591   1.910       .  S
Al581       O586   1.793       .  S
O582        C589   1.261   1_556  A
O582       Al590   1.926       .  S
O583        C592   1.262       .  A
O583       Al590   1.931       .  S
O584       Al590   1.877   1_554  S
O585        C592   1.256       .  A
O586       Al590   1.788       .  S
O587        C588   1.270       .  A
C588       C1050   1.497       .  S
C589        C765   1.487       .  S
C592        C729   1.481       .  S
C593        O594   1.266       .  A
C593        C993   1.466       .  S
O595        C610   1.264       .  A
O595       Al603   1.929       .  S
C596        O606   1.264       .  A
C596        O597   1.266       .  A
C596        C738   1.486       .  S
O597       Al599   1.933   1_554  S
O598        C600   1.250       .  A
O598       Al599   1.826       .  S
Al599       O607   1.894       .  S
Al599       O609   1.922       .  S
Al599       O608   1.796       .  S
C600        O613   1.259       .  A
C600        C721   1.438   1_556  S
O601       C1699   1.258   1_546  A
O601       Al603   1.933       .  S
O602        C615   1.264       .  A
O602      Al1700   1.893       .  S
Al603       O613   1.886       .  S
Al603      O1704   1.906   1_545  S
Al603       O608   1.800       .  S
O604        C611   1.262       .  A
O604      Al1700   1.928   1_554  S
O605        C614   1.263       .  A
O605       Al612   1.932       .  S
O606       Al612   1.909   1_554  S
O607        C614   1.257       .  A
O608       Al612   1.791       .  S
O609        C610   1.261       .  A
C610        C725   1.506       .  S
C611       O1689   1.260   1_554  A
C611        C810   1.492       .  S
Al612      O1690   1.894   1_545  S
Al612      O1692   1.894   1_546  S
C614        C730   1.480       .  S
C615        O616   1.270       .  A
C615        C974   1.468       .  S
O616      Al1691   1.918       .  S
O617        C632   1.274       .  A
O617       Al625   1.948       .  S
C618        O628   1.265       .  A
C618        O619   1.263       .  A
C618        C713   1.472       .  S
O619       Al621   1.891       .  S
O620        C622   1.263       .  A
O620       Al621   1.939       .  S
Al621       O629   1.941       .  S
Al621       O631   1.882       .  S
Al621       O630   1.783       .  S
C622        O635   1.263       .  A
C622        C726   1.506       .  S
O623        C633   1.266       .  A
O623       Al625   1.925       .  S
O624        C637   1.261       .  A
O624       Al634   1.918       .  S
Al625       O638   1.925       .  S
Al625       O635   1.940       .  S
Al625       O630   1.793       .  S
O626        C633   1.252       .  A
O626       Al634   1.841       .  S
O627        C636   1.257       .  A
O627       Al634   1.893       .  S
O628       Al634   1.927       .  S
O629        C636   1.266       .  A
O630       Al634   1.791       .  S
O631        C632   1.262       .  A
C632        C782   1.468       .  S
C633        C982   1.457       .  S
C636        C717   1.480       .  S
C637        O638   1.267       .  A
C637        C946   1.495       .  S
O639        C654   1.265       .  A
O639       Al647   1.916       .  S
C640        O650   1.265       .  A
C640        O641   1.264       .  A
C640        C709   1.484       .  S
O641       Al643   1.900       .  S
O642        C644   1.266       .  A
O642       Al643   1.957       .  S
Al643       O651   1.951       .  S
Al643       O653   1.880       .  S
Al643       O652   1.786       .  S
C644        O657   1.255       .  A
C644        C830   1.489       .  S
O645        C655   1.255       .  A
O645       Al647   1.880       .  S
O646        C659   1.264       .  A
O646       Al656   1.932       .  S
Al647       O660   1.912       .  S
Al647       O657   1.900       .  S
Al647       O652   1.791       .  S
O648        C655   1.254       .  A
O648       Al656   1.838       .  S
O649        C658   1.260       .  A
O649       Al656   1.887       .  S
O650       Al656   1.938       .  S
O651        C658   1.269       .  A
O652       Al656   1.785       .  S
O653        C654   1.264       .  A
C654        C778   1.465       .  S
C655        C910   1.431       .  S
C658        C718   1.482       .  S
C659        O660   1.266       .  A
C659        C878   1.494       .  S
O661        C676   1.268       .  A
O661       Al669   1.924       .  S
C662        O672   1.264       .  A
C662        O663   1.263       .  A
C662        C714   1.470       .  S
O663       Al665   1.891   1_556  S
O664        C666   1.272       .  A
O664       Al665   1.976   1_556  S
Al665       O673   1.938       .  S
Al665       O675   1.873       .  S
Al665       O674   1.774       .  S
C666        O679   1.255       .  A
C666        C986   1.487       .  S
O667        C677   1.261       .  A
O667       Al669   1.917       .  S
O668        C681   1.268       .  A
O668       Al678   1.945       .  S
Al669       O682   1.902       .  S
Al669       O679   1.888   1_554  S
Al669       O674   1.780       .  S
O670        C677   1.252       .  A
O670       Al678   1.831       .  S
O671        C680   1.261       .  A
O671       Al678   1.883       .  S
O672       Al678   1.928   1_556  S
O673        C680   1.270       .  A
O674       Al678   1.776       .  S
O675        C676   1.255       .  A
C676        C802   1.455       .  S
C677        C722   1.439       .  S
C680        C705   1.467       .  S
C681        O682   1.262       .  A
C681        C733   1.488       .  S
O683        C698   1.265       .  A
O683       Al691   1.886       .  S
C684        O694   1.261       .  A
C684        O685   1.271       .  A
C684        C710   1.480       .  S
O685       Al687   1.936       .  S
O686        C688   1.252       .  A
O686       Al687   1.894       .  S
Al687       O695   1.929   1_556  S
Al687       O697   1.918   1_556  S
Al687       O696   1.795   1_556  S
C688        O701   1.252       .  A
C688        C914   1.483       .  S
O689        C699   1.261       .  A
O689       Al691   1.909   1_556  S
O690        C703   1.263       .  A
O690       Al700   1.912       .  S
Al691       O704   1.916       .  S
Al691       O701   1.904   1_554  S
Al691       O696   1.797       .  S
O692        C699   1.249   1_554  A
O692       Al700   1.841       .  S
O693        C702   1.242       .  A
O693       Al700   1.840       .  S
O694       Al700   1.883   1_556  S
O695        C702   1.257       .  A
O696       Al700   1.799       .  S
O697        C698   1.272       .  A
C698        C794   1.469       .  S
C699        C825   1.449       .  S
C702        C706   1.481       .  S
C703        O704   1.265       .  A
C703        C849   1.485       .  S
C705        C706   1.355       .  D
C705        H707   1.086       .  S
C706        H708   1.087       .  S
C709        C710   1.344       .  D
C709        H711   1.087       .  S
C710        H712   1.087       .  S
C713        C714   1.341       .  D
C713        H715   1.087       .  S
C714        H716   1.087       .  S
C717        C718   1.352       .  D
C717        H719   1.087       .  S
C718        H720   1.087       .  S
C721        C722   1.342       .  D
C721        H723   1.088       .  S
C722        H724   1.087       .  S
C725        C726   1.357       .  D
C725        H727   1.086       .  S
C726        H728   1.087       .  S
C729        C730   1.351       .  D
C729        H731   1.087       .  S
C730        H732   1.087       .  S
C733        C734   1.350       .  D
C733        H735   1.087       .  S
C734        H736   1.086       .  S
C737        C738   1.345       .  D
C737        H739   1.087       .  S
C738        H740   1.087       .  S
C741        C742   1.342       .  D
C741        H743   1.087       .  S
C742        H744   1.087       .  S
C745        C746   1.356       .  D
C745        H747   1.086       .  S
C746        H748   1.087       .  S
C749        C750   1.354   1_655  D
C749        H751   1.087       .  S
C750        H752   1.086       .  S
C753        C754   1.354       .  D
C753        H755   1.087       .  S
C754        H756   1.086       .  S
C757        C758   1.336       .  D
C757        H759   1.087       .  S
C758        H760   1.087       .  S
C761        C762   1.348   1_455  D
C761        H763   1.087       .  S
C762        H764   1.087       .  S
C765        C766   1.345   1_455  D
C765        H767   1.087       .  S
C766        H768   1.087       .  S
C769        C770   1.343       .  D
C769        H771   1.087       .  S
C770        H772   1.087       .  S
C773        C774   1.349       .  D
C773        H775   1.087       .  S
C774        H776   1.087       .  S
C777        C778   1.339       .  D
C777        H779   1.087       .  S
C778        H780   1.088       .  S
C781        C782   1.343       .  D
C781        H783   1.087       .  S
C782        H784   1.086       .  S
C785        C786   1.351       .  D
C785        H787   1.088       .  S
C786        H788   1.086       .  S
C789        C790   1.347       .  D
C789        H791   1.087       .  S
C790        H792   1.087       .  S
C793        C794   1.339       .  D
C793        H795   1.086       .  S
C794        H796   1.088       .  S
C797        C798   1.344       .  D
C797        H799   1.087       .  S
C798        H800   1.087       .  S
C801        C802   1.334       .  D
C801        H803   1.088       .  S
C802        H804   1.087       .  S
C805       C1894   1.338       .  D
C805        H807   1.087       .  S
C806       C1893   1.340   1_545  D
C806        H808   1.088       .  S
C809        C810   1.357       .  D
C809        H811   1.086       .  S
C810        H812   1.087       .  S
C813        C814   1.344       .  D
C813        H815   1.087       .  S
C814        H816   1.087       .  S
C817        C818   1.356       .  D
C817        H819   1.087       .  S
C818        H820   1.087       .  S
C821        C822   1.357       .  D
C821        H823   1.087       .  S
C822        H824   1.086       .  S
C825        C826   1.351       .  D
C825        H827   1.087       .  S
C826        H828   1.087       .  S
C829        C830   1.348       .  D
C829        H831   1.087       .  S
C830        H832   1.086       .  S
C833        C834   1.346       .  D
C833        H835   1.087       .  S
C834        H836   1.087       .  S
C837        C838   1.348       .  D
C837        H839   1.087       .  S
C838        H840   1.086       .  S
C841        C842   1.350       .  D
C841        H843   1.087       .  S
C842        H844   1.087       .  S
C845        C846   1.348       .  D
C845        H847   1.086       .  S
C846        H848   1.087       .  S
C849        C850   1.348       .  D
C849        H851   1.086       .  S
C850        H852   1.087       .  S
C853        C854   1.347       .  D
C853        H855   1.087       .  S
C854        H856   1.087       .  S
C857        C858   1.342       .  D
C857        H859   1.087       .  S
C858        H860   1.087       .  S
C861        C862   1.345       .  D
C861        H863   1.087       .  S
C862        H864   1.087       .  S
C865        C866   1.355       .  D
C865        H867   1.086       .  S
C866        H868   1.087       .  S
C869        C870   1.342       .  D
C869        H871   1.087       .  S
C870        H872   1.087       .  S
C873        C874   1.341       .  D
C873        H875   1.087       .  S
C874        H876   1.087       .  S
C877        C878   1.355       .  D
C877        H879   1.087       .  S
C878        H880   1.086       .  S
C881        C882   1.358       .  D
C881        H883   1.086       .  S
C882        H884   1.087       .  S
C885       C1974   1.349       .  D
C885        H887   1.087       .  S
C886       C1973   1.350   1_545  D
C886        H888   1.087       .  S
C889        C890   1.332       .  D
C889        H891   1.088       .  S
C890        H892   1.087       .  S
C893        C894   1.347       .  D
C893        H895   1.087       .  S
C894        H896   1.087       .  S
C897        C898   1.347       .  D
C897        H899   1.087       .  S
C898        H900   1.087       .  S
C901        C902   1.347       .  D
C901        H903   1.087       .  S
C902        H904   1.087       .  S
C905        C906   1.341       .  D
C905        H907   1.087       .  S
C906        H908   1.087       .  S
C909        C910   1.336       .  D
C909        H911   1.087       .  S
C910        H912   1.088       .  S
C913        C914   1.348       .  D
C913        H915   1.086       .  S
C914        H916   1.088       .  S
C917        C918   1.345       .  D
C917        H919   1.087       .  S
C918        H920   1.086       .  S
C921        C922   1.347       .  D
C921        H923   1.086       .  S
C922        H924   1.087       .  S
C925        C926   1.340       .  D
C925        H927   1.088       .  S
C926        H928   1.087       .  S
C929        C930   1.345       .  D
C929        H931   1.087       .  S
C930        H932   1.087       .  S
C933        C934   1.351       .  D
C933        H935   1.087       .  S
C934        H936   1.087       .  S
C937        C938   1.357       .  D
C937        H939   1.087       .  S
C938        H940   1.086       .  S
C941        C942   1.333       .  D
C941        H943   1.087       .  S
C942        H944   1.088       .  S
C945        C946   1.352       .  D
C945        H947   1.087       .  S
C946        H948   1.086       .  S
C949        C950   1.354       .  D
C949        H951   1.087       .  S
C950        H952   1.086       .  S
C953        C954   1.348       .  D
C953        H955   1.087       .  S
C954        H956   1.087       .  S
C957        C958   1.337       .  D
C957        H959   1.087       .  S
C958        H960   1.088       .  S
C961        C962   1.342       .  D
C961        H963   1.088       .  S
C962        H964   1.087       .  S
C965        C966   1.354   1_655  D
C965        H967   1.087       .  S
C966        H968   1.086       .  S
C969        C970   1.344   1_655  D
C969        H971   1.087       .  S
C970        H972   1.088       .  S
C973        C974   1.342       .  D
C973        H975   1.087       .  S
C974        H976   1.087       .  S
C977        C978   1.344       .  D
C977        H979   1.087       .  S
C978        H980   1.087       .  S
C981        C982   1.353       .  D
C981        H983   1.087       .  S
C982        H984   1.086       .  S
C985        C986   1.346       .  D
C985        H987   1.087       .  S
C986        H988   1.086       .  S
C989        C990   1.346       .  D
C989        H991   1.087       .  S
C990        H992   1.086       .  S
C993        C994   1.340       .  D
C993        H995   1.087       .  S
C994        H996   1.087       .  S
C997        C998   1.345       .  D
C997        H999   1.087       .  S
C998       H1000   1.087       .  S
C1001      C1002   1.348       .  D
C1001      H1003   1.087       .  S
C1002      H1004   1.087       .  S
C1005      C1006   1.352   1_455  D
C1005      H1007   1.087       .  S
C1006      H1008   1.086       .  S
C1009      C1010   1.337       .  D
C1009      H1011   1.087       .  S
C1010      H1012   1.088       .  S
C1013      C1014   1.353   1_455  D
C1013      H1015   1.087       .  S
C1014      H1016   1.086       .  S
C1017      C2106   1.344   1_455  D
C1017      H1019   1.087       .  S
C1018      C2105   1.352   1_645  D
C1018      H1020   1.087       .  S
C1021      C1022   1.353   1_455  D
C1021      H1023   1.086       .  S
C1022      H1024   1.088       .  S
C1025      C1026   1.340       .  D
C1025      H1027   1.087       .  S
C1026      H1028   1.088       .  S
C1029      C1030   1.352       .  D
C1029      H1031   1.088       .  S
C1030      H1032   1.086       .  S
C1033      C1034   1.352       .  D
C1033      H1035   1.086       .  S
C1034      H1036   1.087       .  S
C1037      C1038   1.353       .  D
C1037      H1039   1.086       .  S
C1038      H1040   1.087       .  S
C1041      C1042   1.345       .  D
C1041      H1043   1.087   1_556  S
C1042      H1044   1.087       .  S
C1045      C1046   1.342       .  D
C1045      H1047   1.087       .  S
C1046      H1048   1.087       .  S
C1049      C1050   1.356   1_655  D
C1049      H2139   1.087       .  S
C1050      H1052   1.086       .  S
H1051      C2137   1.088       .  S
C1053      C1054   1.348       .  D
C1053      H1055   1.087       .  S
C1054      H1056   1.087       .  S
C1057      C1058   1.353   1_655  D
C1057      H1059   1.086       .  S
C1058      H1060   1.087       .  S
C1061      C1062   1.354       .  D
C1061      H1063   1.087       .  S
C1062      H1064   1.087   1_455  S
C1065      C1066   1.342       .  D
C1065      H1067   1.086       .  S
C1066      H1068   1.088       .  S
C1069      C1070   1.345       .  D
C1069      H1071   1.086       .  S
C1070      H1072   1.087       .  S
C1073      C2162   1.346       .  D
C1073      H1075   1.087       .  S
C1074      C2161   1.352   1_545  D
C1074      H1076   1.087       .  S
C1077      C1078   1.339       .  D
C1077      H1079   1.087       .  S
C1078      H1080   1.087       .  S
C1081      C1082   1.350       .  D
C1081      H1083   1.087       .  S
C1082      H1084   1.087       .  S
C1085      C1086   1.350       .  D
C1085      H1087   1.086       .  S
C1086      H1088   1.087       .  S
O1089      C1104   1.268       .  A
O1089     Al1097   1.918       .  S
C1090      O1100   1.266       .  A
C1090      O1091   1.264       .  A
C1090      C2165   1.481       .  S
O1091     Al1093   1.902       .  S
O1092      C1094   1.267       .  A
O1092     Al1093   1.943       .  S
Al1093     O1101   1.938       .  S
Al1093     O1103   1.898       .  S
Al1093     O1102   1.774       .  S
C1094      O1107   1.262       .  A
C1094      C2174   1.488       .  S
O1095      C1105   1.265       .  A
O1095     Al1097   1.936       .  S
O1096      C1109   1.270       .  A
O1096     Al1106   1.956       .  S
Al1097     O1110   1.897       .  S
Al1097     O1107   1.906       .  S
Al1097     O1102   1.783       .  S
O1098      C1105   1.250       .  A
O1098     Al1106   1.841       .  S
O1099      C1108   1.260       .  A
O1099     Al1106   1.885       .  S
O1100     Al1106   1.937       .  S
O1101      C1108   1.268       .  A
O1102     Al1106   1.779       .  S
O1103      C1104   1.263       .  A
C1104      C2153   1.467       .  S
C1105      C2161   1.454       .  S
C1108      C2169   1.472       .  S
C1109      O1110   1.260       .  A
C1109      C2157   1.489       .  S
O1111      C1126   1.266       .  A
C1112      O1122   1.266       .  A
C1112      O1113   1.263       .  A
C1112      C2141   1.481       .  S
O1113     Al1115   1.901       .  S
O1114      C1116   1.252       .  A
Al1115     O1123   1.953       .  S
Al1115     O1124   1.781       .  S
C1116      C2137   1.483       .  S
O1117      C1127   1.262       .  A
O1117     Al1119   1.911       .  S
O1118      C1131   1.260       .  A
O1118     Al1128   1.916       .  S
Al1119     O1132   1.922       .  S
Al1119     O1129   1.922       .  S
Al1119     O1124   1.789       .  S
O1120      C1127   1.254       .  A
O1120     Al1128   1.845       .  S
O1121      C1130   1.255       .  A
O1121     Al1128   1.877       .  S
O1122     Al1128   1.936       .  S
O1123      C1130   1.269       .  A
O1124     Al1128   1.779       .  S
O1125      C1126   1.268       .  A
C1126      C2134   1.463       .  S
C1127      C2149   1.447       .  S
C1130      C2170   1.478       .  S
C1131      O1132   1.267       .  A
C1131      C2145   1.487       .  S
O1133      C1148   1.273       .  A
C1134      O1144   1.260       .  A
C1134      O1135   1.266       .  A
C1134      C2166   1.480       .  S
O1135     Al1137   1.920   1_556  S
O1136      C1138   1.262       .  A
Al1137     O1145   1.917       .  S
Al1137     O1146   1.794       .  S
C1138      C2117   1.501       .  S
O1139      C1149   1.263       .  A
O1139     Al1141   1.907       .  S
O1140      C1153   1.266       .  A
O1140     Al1150   1.923       .  S
Al1141     O1154   1.918       .  S
Al1141     O1151   1.916   1_554  S
Al1141     O1146   1.804       .  S
O1142      C1149   1.254       .  A
O1142     Al1150   1.851       .  S
O1143      C1152   1.250       .  A
O1143     Al1150   1.878       .  S
O1144     Al1150   1.892   1_556  S
O1145      C1152   1.258       .  A
O1146     Al1150   1.801       .  S
O1147      C1148   1.258       .  A
C1148      C2114   1.462       .  S
C1149      C2130   1.454   1_554  S
C1152      C2121   1.484       .  S
C1153      O1154   1.262       .  A
C1153      C2125   1.494       .  S
O1155      C1170   1.267       .  A
O1155     Al1163   1.897       .  S
C1156      O1166   1.262       .  A
C1156      O1157   1.265       .  A
C1156      C2142   1.481       .  S
O1157     Al1159   1.913   1_556  S
O1158      C1160   1.253       .  A
O1158     Al1159   1.900   1_556  S
Al1159     O1167   1.905       .  S
Al1159     O1169   1.905       .  S
Al1159     O1168   1.795       .  S
C1160      O1173   1.252   1_556  A
C1160      C2110   1.488       .  S
O1161      C1171   1.266       .  A
O1161     Al1163   1.919       .  S
O1162      C1175   1.269       .  A
O1162     Al1172   1.934       .  S
Al1163     O1176   1.906       .  S
Al1163     O1173   1.910       .  S
Al1163     O1168   1.802       .  S
O1164      C1171   1.252       .  A
O1164     Al1172   1.848       .  S
O1165      C1174   1.250       .  A
O1165     Al1172   1.885       .  S
O1166     Al1172   1.902   1_556  S
O1167      C1174   1.255       .  A
O1168     Al1172   1.803       .  S
O1169      C1170   1.268       .  A
C1170      C2098   1.468       .  S
C1171      C2105   1.459   1_655  S
C1174      C2122   1.481       .  S
C1175      O1176   1.260       .  A
C1175      C2102   1.495       .  S
O1177      C1192   1.262       .  A
O1177     Al1185   1.910       .  S
C1178      O1188   1.264       .  A
C1178      O1179   1.265       .  A
C1178      C2086   1.482       .  S
O1179     Al1181   1.931       .  S
O1180      C1182   1.254       .  A
O1180     Al1181   1.842       .  S
Al1181     O1189   1.889       .  S
Al1181     O1191   1.913       .  S
Al1181     O1190   1.785       .  S
C1182      O1195   1.264   1_455  A
C1182      C2150   1.449   1_455  S
O1183      C1193   1.259   1_655  A
O1183     Al1185   1.921   1_655  S
O1184      C1197   1.260       .  A
O1184     Al1194   1.878       .  S
Al1185     O1198   1.927       .  S
Al1185     O1195   1.912   1_455  S
Al1185     O1190   1.795       .  S
O1186      C1193   1.259       .  A
O1186     Al1194   1.912       .  S
O1187      C1196   1.262       .  A
O1187     Al1194   1.922       .  S
O1188     Al1194   1.909       .  S
O1189      C1196   1.258       .  A
O1190     Al1194   1.782       .  S
O1191      C1192   1.258       .  A
C1192      C2109   1.482       .  S
C1193      C2093   1.486   1_455  S
C1196      C2089   1.469       .  S
C1197      O1198   1.271       .  A
C1197      C2082   1.463       .  S
O1199      C1214   1.264       .  A
O1199     Al1207   1.912       .  S
C1200      O1210   1.263       .  A
C1200      O1201   1.264       .  A
C1200      C2066   1.478       .  S
O1201     Al1203   1.926       .  S
O1202      C1204   1.255       .  A
O1202     Al1203   1.839       .  S
Al1203     O1211   1.891       .  S
Al1203     O1213   1.911       .  S
Al1203     O1212   1.780       .  S
C1204      O1217   1.263       .  A
C1204      C2069   1.449       .  S
O1205      C1215   1.259       .  A
O1205     Al1207   1.917       .  S
O1206      C1219   1.258       .  A
O1206     Al1216   1.874       .  S
Al1207     O1220   1.933       .  S
Al1207     O1217   1.918       .  S
Al1207     O1212   1.796       .  S
O1208      C1215   1.261       .  A
O1208     Al1216   1.919       .  S
O1209      C1218   1.263       .  A
O1209     Al1216   1.920       .  S
O1210     Al1216   1.907       .  S
O1211      C1218   1.259       .  A
O1212     Al1216   1.779       .  S
O1213      C1214   1.259       .  A
C1214      C2073   1.481       .  S
C1215      C2077   1.485       .  S
C1218      C2090   1.467       .  S
C1219      O1220   1.271       .  A
C1219      C2061   1.461       .  S
O1221      C1236   1.261       .  A
O1221     Al1229   1.915       .  S
C1222      O1232   1.266       .  A
C1222      O1223   1.269       .  A
C1222      C2085   1.483       .  S
O1223     Al1225   1.939       .  S
O1224      C1226   1.249       .  A
O1224     Al1225   1.821       .  S
Al1225     O1233   1.880       .  S
Al1225     O1235   1.909       .  S
Al1225     O1234   1.793       .  S
C1226      O1239   1.264   1_455  A
C1226      C2057   1.441   1_455  S
O1227      C1237   1.258   1_655  A
O1227     Al1229   1.926   1_655  S
O1228      C1241   1.269       .  A
O1228     Al1238   1.884       .  S
Al1229     O1242   1.928       .  S
Al1229     O1239   1.905   1_455  S
Al1229     O1234   1.794       .  S
O1230      C1237   1.252       .  A
O1230     Al1238   1.903       .  S
O1231      C1240   1.259       .  A
O1231     Al1238   1.924       .  S
O1232     Al1238   1.903       .  S
O1233      C1240   1.253       .  A
O1234     Al1238   1.793       .  S
O1235      C1236   1.258       .  A
C1236      C2054   1.493       .  S
C1237      C2146   1.490   1_455  S
C1240      C2050   1.468       .  S
C1241      O1242   1.273       .  A
C1241      C2045   1.469       .  S
O1243      C1258   1.261       .  A
O1243     Al1251   1.905       .  S
C1244      O1254   1.266       .  A
C1244      O1245   1.270       .  A
C1244      C2065   1.481       .  S
O1245     Al1247   1.944       .  S
O1246      C1248   1.249       .  A
O1246     Al1247   1.823       .  S
Al1247     O1255   1.883       .  S
Al1247     O1257   1.919       .  S
Al1247     O1256   1.785       .  S
C1248      O1261   1.265       .  A
C1248      C2041   1.447       .  S
O1249      C1259   1.259       .  A
O1249     Al1251   1.926       .  S
O1250      C1263   1.262       .  A
O1250     Al1260   1.875       .  S
Al1251     O1264   1.938       .  S
Al1251     O1261   1.918       .  S
Al1251     O1256   1.788       .  S
O1252      C1259   1.258       .  A
O1252     Al1260   1.925       .  S
O1253      C1262   1.261       .  A
O1253     Al1260   1.927       .  S
O1254     Al1260   1.894       .  S
O1255      C1262   1.254       .  A
O1256     Al1260   1.785       .  S
O1257      C1258   1.261       .  A
C1258      C2038   1.487       .  S
C1259      C2033   1.495       .  S
C1262      C2049   1.468       .  S
C1263      O1264   1.276       .  A
C1263      C2029   1.463       .  S
O1265      C1280   1.265       .  A
O1265     Al1273   1.922       .  S
C1266      O1276   1.264       .  A
C1266      O1267   1.267       .  A
C1266      C2017   1.488       .  S
O1267     Al1269   1.939       .  S
O1268      C1270   1.254       .  A
O1268     Al1269   1.842       .  S
Al1269     O1277   1.895       .  S
Al1269     O1279   1.925       .  S
Al1269     O1278   1.785       .  S
C1270      O1283   1.263       .  A
C1270      C2162   1.449       .  S
O1271      C1281   1.259       .  A
O1271     Al1273   1.919       .  S
O1272      C1285   1.261       .  A
O1272     Al1282   1.883       .  S
Al1273     O1286   1.929       .  S
Al1273     O1283   1.911       .  S
Al1273     O1278   1.796       .  S
O1274      C1281   1.258       .  A
O1274     Al1282   1.911       .  S
O1275      C1284   1.261       .  A
O1275     Al1282   1.916       .  S
O1276     Al1282   1.914       .  S
O1277      C1284   1.259       .  A
O1278     Al1282   1.786       .  S
O1279      C1280   1.262       .  A
C1280      C2118   1.497       .  S
C1281      C2025   1.485       .  S
C1284      C2021   1.468       .  S
C1285      O1286   1.271       .  A
C1285      C2014   1.466       .  S
O1287      C1302   1.261       .  A
O1287     Al1295   1.912       .  S
C1288      O1298   1.265       .  A
C1288      O1289   1.267       .  A
C1288      C2005   1.480       .  S
O1289     Al1291   1.933       .  S
O1290      C1292   1.253       .  A
O1290     Al1291   1.844       .  S
Al1291     O1299   1.890       .  S
Al1291     O1301   1.907       .  S
Al1291     O1300   1.796       .  S
C1292      O1305   1.261       .  A
C1292      C1997   1.451       .  S
O1293     Al1295   1.926       .  S
O1294      C1307   1.270       .  A
Al1295     O1305   1.898       .  S
Al1295     O1300   1.796       .  S
O1296      C1303   1.257       .  A
O1297      C1306   1.257       .  A
O1297     Al1304   1.911       .  S
O1298     Al1304   1.898       .  S
O1299      C1306   1.254       .  A
O1300     Al1304   1.795       .  S
O1301      C1302   1.257       .  A
C1302      C2001   1.488       .  S
C1303      C2010   1.469       .  S
C1306      C2022   1.470       .  S
C1307      O1308   1.260       .  A
C1307      C1993   1.461       .  S
O1309      C1324   1.256       .  A
O1309     Al1317   1.888       .  S
C1310      O1320   1.266       .  A
C1310      O1311   1.272       .  A
C1310      C2018   1.490       .  S
O1311     Al1313   1.951       .  S
O1312      C1314   1.247       .  A
O1312     Al1313   1.818       .  S
Al1313     O1321   1.893       .  S
Al1313     O1323   1.959       .  S
Al1313     O1322   1.784       .  S
C1314      O1327   1.261       .  A
C1314      C1989   1.437       .  S
O1315     Al1317   1.912       .  S
O1316      C1329   1.258       .  A
Al1317     O1327   1.911       .  S
Al1317     O1322   1.784       .  S
O1318      C1325   1.268       .  A
O1319      C1328   1.264       .  A
O1319     Al1326   1.933       .  S
O1320     Al1326   1.904       .  S
O1321      C1328   1.259       .  A
O1322     Al1326   1.781       .  S
O1323      C1324   1.270       .  A
C1324      C1986   1.491       .  S
C1325      C2158   1.485       .  S
C1328      C1981   1.477       .  S
C1329      O1330   1.268       .  A
C1329      C1977   1.456       .  S
O1331      C1346   1.264       .  A
O1331     Al1339   1.922       .  S
C1332      O1342   1.264       .  A
C1332      O1333   1.265       .  A
C1332      C2006   1.479       .  S
O1333     Al1335   1.932       .  S
O1334      C1336   1.253       .  A
O1334     Al1335   1.838       .  S
Al1335     O1343   1.895       .  S
Al1335     O1345   1.930       .  S
Al1335     O1344   1.783       .  S
C1336      O1349   1.265       .  A
C1336      C1974   1.451       .  S
O1337      C1347   1.262       .  A
O1337     Al1339   1.932       .  S
O1338      C1351   1.258       .  A
O1338     Al1348   1.872       .  S
Al1339     O1352   1.932       .  S
Al1339     O1349   1.922       .  S
Al1339     O1344   1.794       .  S
O1340      C1347   1.264       .  A
O1340     Al1348   1.940       .  S
O1341      C1350   1.266       .  A
O1341     Al1348   1.936       .  S
O1342     Al1348   1.903       .  S
O1343      C1350   1.260       .  A
O1344     Al1348   1.782       .  S
O1345      C1346   1.262       .  A
C1346      C1969   1.493       .  S
C1347      C1965   1.503       .  S
C1350      C1982   1.477       .  S
C1351      O1352   1.272       .  A
C1351      C1961   1.461       .  S
O1353      C1368   1.263       .  A
O1353     Al1361   1.919       .  S
C1354      O1364   1.263       .  A
C1354      O1355   1.261       .  A
C1354      C1945   1.484       .  S
O1355     Al1357   1.923       .  S
O1356      C1358   1.254       .  A
O1356     Al1357   1.838       .  S
Al1357     O1365   1.895       .  S
Al1357     O1367   1.936       .  S
Al1357     O1366   1.780       .  S
C1358      O1371   1.258       .  A
C1358      C1958   1.440       .  S
O1359      C1369   1.262       .  A
O1359     Al1361   1.916       .  S
O1360      C1373   1.263       .  A
O1360     Al1370   1.899       .  S
Al1361     O1374   1.876       .  S
Al1361     O1371   1.901       .  S
Al1361     O1366   1.794       .  S
O1362      C1369   1.264       .  A
O1362     Al1370   1.926       .  S
O1363      C1372   1.268       .  A
O1363     Al1370   1.936       .  S
O1364     Al1370   1.919       .  S
O1365      C1372   1.262       .  A
O1366     Al1370   1.778       .  S
O1367      C1368   1.263       .  A
C1368      C1953   1.487       .  S
C1369      C2126   1.487       .  S
C1372      C1949   1.476       .  S
C1373      O1374   1.261       .  A
C1373      C1978   1.460       .  S
O1375      C1390   1.261       .  A
O1375     Al1383   1.900       .  S
C1376      O1386   1.263       .  A
C1376      O1377   1.265       .  A
C1376      C1942   1.480       .  S
O1377     Al1379   1.931       .  S
O1378      C1380   1.252       .  A
O1378     Al1379   1.842       .  S
Al1379     O1387   1.888       .  S
Al1379     O1389   1.918       .  S
Al1379     O1388   1.789       .  S
C1380      O1393   1.259       .  A
C1380      C1929   1.442       .  S
O1381      C1391   1.259       .  A
O1381     Al1383   1.914       .  S
O1382      C1395   1.269       .  A
O1382     Al1392   1.892       .  S
Al1383     O1396   1.905       .  S
Al1383     O1393   1.895       .  S
Al1383     O1388   1.794       .  S
O1384      C1391   1.258       .  A
O1384     Al1392   1.912       .  S
O1385      C1394   1.264       .  A
O1385     Al1392   1.938       .  S
O1386     Al1392   1.901       .  S
O1387      C1394   1.257       .  A
O1388     Al1392   1.785       .  S
O1389      C1390   1.261       .  A
C1390      C1933   1.480       .  S
C1391      C1938   1.481       .  S
C1394      C1950   1.479       .  S
C1395      O1396   1.265       .  A
C1395      C1962   1.464       .  S
O1397      C1412   1.261       .  A
O1397     Al1405   1.906       .  S
C1398      O1408   1.266       .  A
C1398      O1399   1.266       .  A
C1398      C1946   1.485       .  S
O1399     Al1401   1.934   1_554  S
O1400      C1402   1.253       .  A
O1400     Al1401   1.841       .  S
Al1401     O1409   1.886       .  S
Al1401     O1411   1.906       .  S
Al1401     O1410   1.793       .  S
C1402      O1415   1.262       .  A
C1402      C2129   1.444       .  S
O1403      C1413   1.257   1_556  A
O1403     Al1405   1.914       .  S
O1404      C1417   1.269       .  A
O1404     Al1414   1.891       .  S
Al1405     O1418   1.916       .  S
Al1405     O1415   1.899       .  S
Al1405     O1410   1.794       .  S
O1406      C1413   1.253       .  A
O1406     Al1414   1.896   1_554  S
O1407      C1416   1.260       .  A
O1407     Al1414   1.919       .  S
O1408     Al1414   1.909   1_554  S
O1409      C1416   1.256       .  A
O1410     Al1414   1.792       .  S
O1411      C1412   1.257       .  A
C1412      C2173   1.484       .  S
C1413      C1925   1.479       .  S
C1416      C1921   1.468       .  S
C1417      O1418   1.268       .  A
C1417      C2013   1.468       .  S
O1419      C1434   1.264       .  A
O1419     Al1427   1.925       .  S
C1420      O1430   1.265       .  A
C1420      O1421   1.268       .  A
C1420      C1941   1.479       .  S
O1421     Al1423   1.939   1_554  S
O1422      C1424   1.253       .  A
O1422     Al1423   1.830       .  S
Al1423     O1431   1.890       .  S
Al1423     O1433   1.918       .  S
Al1423     O1432   1.786       .  S
C1424      O1437   1.266       .  A
C1424      C1914   1.447       .  S
O1425      C1435   1.259   1_556  A
O1425     Al1427   1.928       .  S
O1426      C1439   1.257       .  A
O1426     Al1436   1.864       .  S
Al1427     O1440   1.940       .  S
Al1427     O1437   1.916       .  S
Al1427     O1432   1.793       .  S
O1428      C1435   1.259       .  A
O1428     Al1436   1.928   1_554  S
O1429      C1438   1.261       .  A
O1429     Al1436   1.918       .  S
O1430     Al1436   1.899   1_554  S
O1431      C1438   1.257       .  A
O1432     Al1436   1.789       .  S
O1433      C1434   1.260       .  A
C1434      C1917   1.500       .  S
C1435      C1909   1.500       .  S
C1438      C1922   1.466       .  S
C1439      O1440   1.276       .  A
C1439      C1994   1.458       .  S
O1441      C1456   1.263       .  A
O1441     Al1449   1.873       .  S
C1442      O1452   1.262       .  A
C1442      O1443   1.266       .  A
C1442      C1902   1.484       .  S
O1443     Al1445   1.922       .  S
O1444      C1446   1.255       .  A
O1444     Al1445   1.907       .  S
Al1445     O1453   1.932       .  S
Al1445     O1455   1.907       .  S
Al1445     O1454   1.792       .  S
C1446      O1459   1.253       .  A
C1446      C2037   1.491       .  S
O1447      C1457   1.259       .  A
O1447     Al1449   1.891       .  S
O1448      C1461   1.263       .  A
O1448     Al1458   1.924       .  S
Al1449     O1462   1.928       .  S
Al1449     O1459   1.914       .  S
Al1449     O1454   1.805       .  S
O1450      C1457   1.255       .  A
O1450     Al1458   1.837       .  S
O1451      C1460   1.247       .  A
O1451     Al1458   1.856       .  S
O1452     Al1458   1.902       .  S
O1453      C1460   1.260       .  A
O1454     Al1458   1.795       .  S
O1455      C1456   1.271       .  A
C1456      C1889   1.459       .  S
C1457      C1893   1.440       .  S
C1460      C1905   1.487       .  S
C1461      O1462   1.264       .  A
C1461      C1897   1.497       .  S
O1463      C1478   1.267       .  A
C1464      O1474   1.262       .  A
C1464      O1465   1.264       .  A
C1464      C1885   1.479       .  S
O1465     Al1467   1.906       .  S
O1466      C1468   1.255       .  A
Al1467     O1475   1.934       .  S
Al1467     O1476   1.779       .  S
C1468      C1970   1.499       .  S
O1469      C1479   1.262       .  A
O1469     Al1471   1.912       .  S
O1470      C1483   1.262       .  A
O1470     Al1480   1.925       .  S
Al1471     O1484   1.924       .  S
Al1471     O1481   1.924       .  S
Al1471     O1476   1.798       .  S
O1472      C1479   1.254       .  A
O1472     Al1480   1.840       .  S
O1473      C1482   1.260       .  A
O1473     Al1480   1.894       .  S
O1474     Al1480   1.926       .  S
O1475      C1482   1.267       .  A
O1476     Al1480   1.785       .  S
O1477      C1478   1.271       .  A
C1478      C1881   1.469       .  S
C1479      C1930   1.446       .  S
C1482      C1906   1.474       .  S
C1483      O1484   1.267       .  A
C1483      C1910   1.496       .  S
O1485      C1500   1.270       .  A
C1486      O1496   1.264       .  A
C1486      O1487   1.267       .  A
C1486      C1901   1.485       .  S
O1487     Al1489   1.924       .  S
O1488      C1490   1.263       .  A
Al1489     O1497   1.923       .  S
Al1489     O1498   1.792       .  S
C1490      C1873   1.484       .  S
O1491      C1501   1.264       .  A
O1491     Al1493   1.916       .  S
O1492      C1505   1.268       .  A
O1492     Al1502   1.927       .  S
Al1493     O1506   1.918       .  S
Al1493     O1503   1.911   1_565  S
Al1493     O1498   1.798       .  S
O1494      C1501   1.249       .  A
O1494     Al1502   1.840       .  S
O1495      C1504   1.245       .  A
O1495     Al1502   1.851       .  S
O1496     Al1502   1.904       .  S
O1497      C1504   1.260       .  A
O1498     Al1502   1.800       .  S
O1499      C1500   1.260       .  A
C1500      C1869   1.458       .  S
C1501      C2042   1.452       .  S
C1504      C1877   1.477       .  S
C1505      O1506   1.265       .  A
C1505      C2078   1.494       .  S
O1507      C1522   1.261       .  A
O1507     Al1515   1.875       .  S
C1508      O1518   1.259       .  A
C1508      O1509   1.272       .  A
C1508      C1886   1.477       .  S
O1509     Al1511   1.939       .  S
O1510      C1512   1.257       .  A
O1510     Al1511   1.909       .  S
Al1511     O1519   1.926       .  S
Al1511     O1521   1.939       .  S
Al1511     O1520   1.788       .  S
C1512      O1525   1.253       .  A
C1512      C1934   1.485       .  S
O1513      C1523   1.261       .  A
O1513     Al1515   1.904       .  S
O1514      C1527   1.264       .  A
O1514     Al1524   1.910       .  S
Al1515     O1528   1.905       .  S
Al1515     O1525   1.903       .  S
Al1515     O1520   1.789       .  S
O1516      C1523   1.252       .  A
O1516     Al1524   1.858       .  S
O1517      C1526   1.245       .  A
O1517     Al1524   1.856       .  S
O1518     Al1524   1.877       .  S
O1519      C1526   1.260       .  A
O1520     Al1524   1.800       .  S
O1521      C1522   1.273       .  A
C1522      C1865   1.473       .  S
C1523      C1973   1.450       .  S
C1526      C1878   1.477       .  S
C1527      O1528   1.265       .  A
C1527      C2009   1.480       .  S
O1529      C1544   1.261       .  A
O1529     Al1537   1.902       .  S
C1530      O1540   1.265       .  A
C1530      O1531   1.262       .  A
C1530      C1857   1.481       .  S
O1531     Al1533   1.898       .  S
O1532      C1534   1.271       .  A
O1532     Al1533   1.969       .  S
Al1533     O1541   1.979       .  S
Al1533     O1543   1.896       .  S
Al1533     O1542   1.781       .  S
C1534      O1547   1.256       .  A
C1534      C1985   1.489       .  S
O1535      C1545   1.255       .  A
O1535     Al1537   1.879       .  S
O1536      C1549   1.262       .  A
O1536     Al1546   1.924       .  S
Al1537     O1550   1.902       .  S
Al1537     O1547   1.893       .  S
Al1537     O1542   1.781       .  S
O1538      C1545   1.254       .  A
O1538     Al1546   1.849       .  S
O1539      C1548   1.255       .  A
O1539     Al1546   1.871       .  S
O1540     Al1546   1.935       .  S
O1541      C1548   1.275       .  A
O1542     Al1546   1.781       .  S
O1543      C1544   1.266       .  A
C1544      C2113   1.465       .  S
C1545      C1957   1.429       .  S
C1548      C1861   1.489       .  S
C1549      O1550   1.265       .  A
C1549      C1926   1.479       .  S
O1551      C1566   1.266       .  A
O1551     Al1559   1.912       .  S
C1552      O1562   1.265       .  A
C1552      O1553   1.262       .  A
C1552      C1845   1.482       .  S
O1553     Al1555   1.900       .  S
O1554      C1556   1.269       .  A
O1554     Al1555   1.953       .  S
Al1555     O1563   1.950       .  S
Al1555     O1565   1.902       .  S
Al1555     O1564   1.773       .  S
C1556      O1569   1.263       .  A
C1556      C2053   1.496       .  S
O1557      C1567   1.260       .  A
O1557     Al1559   1.919       .  S
O1558      C1571   1.270       .  A
O1558     Al1568   1.956       .  S
Al1559     O1572   1.904       .  S
Al1559     O1569   1.911       .  S
Al1559     O1564   1.789       .  S
O1560      C1567   1.250       .  A
O1560     Al1568   1.840       .  S
O1561      C1570   1.260       .  A
O1561     Al1568   1.890       .  S
O1562     Al1568   1.934       .  S
O1563      C1570   1.271       .  A
O1564     Al1568   1.784       .  S
O1565      C1566   1.263       .  A
C1566      C2097   1.468       .  S
C1567      C1849   1.444   1_655  S
C1570      C1862   1.481       .  S
C1571      O1572   1.263       .  A
C1571      C1854   1.491       .  S
O1573      C1588   1.266       .  A
O1573     Al1581   1.884       .  S
C1574      O1584   1.261       .  A
C1574      O1575   1.266       .  A
C1574      C1858   1.480       .  S
O1575     Al1577   1.919       .  S
O1576      C1578   1.255       .  A
O1576     Al1577   1.909       .  S
Al1577     O1585   1.914       .  S
Al1577     O1587   1.919       .  S
Al1577     O1586   1.783       .  S
C1578      O1591   1.255       .  A
C1578      C1954   1.490       .  S
O1579      C1589   1.266       .  A
O1579     Al1581   1.912       .  S
O1580      C1593   1.266       .  A
O1580     Al1590   1.922       .  S
Al1581     O1594   1.927       .  S
Al1581     O1591   1.928       .  S
Al1581     O1586   1.797       .  S
O1582      C1589   1.252       .  A
O1582     Al1590   1.840       .  S
O1583      C1592   1.248       .  A
O1583     Al1590   1.864       .  S
O1584     Al1590   1.897       .  S
O1585      C1592   1.258       .  A
O1586     Al1590   1.793       .  S
O1587      C1588   1.271       .  A
C1588      C2154   1.465       .  S
C1589      C1990   1.446       .  S
C1592      C1841   1.475       .  S
C1593      O1594   1.265       .  A
C1593      C2026   1.492       .  S
O1595      C1610   1.265       .  A
O1595     Al1603   1.892       .  S
C1596      O1606   1.260       .  A
C1596      O1597   1.266       .  A
C1596      C1846   1.480       .  S
O1597     Al1599   1.923       .  S
O1598      C1600   1.254       .  A
O1598     Al1599   1.898       .  S
Al1599     O1607   1.913       .  S
Al1599     O1609   1.915       .  S
Al1599     O1608   1.791       .  S
C1600      O1613   1.257       .  A
C1600      C1837   1.490       .  S
O1601      C1611   1.266       .  A
O1601     Al1603   1.914       .  S
O1602      C1615   1.267       .  A
O1602     Al1612   1.929       .  S
Al1603     O1616   1.914       .  S
Al1603     O1613   1.929       .  S
Al1603     O1608   1.795       .  S
O1604      C1611   1.252       .  A
O1604     Al1612   1.838       .  S
O1605      C1614   1.249       .  A
O1605     Al1612   1.864       .  S
O1606     Al1612   1.893       .  S
O1607      C1614   1.258       .  A
O1608     Al1612   1.796       .  S
O1609      C1610   1.268       .  A
C1610      C2133   1.462       .  S
C1611      C2058   1.451       .  S
C1614      C1842   1.475       .  S
C1615      O1616   1.263       .  A
C1615      C2094   1.495       .  S
O1617      C1632   1.261       .  A
O1617     Al1625   1.907       .  S
C1618      O1628   1.265       .  A
C1618      O1619   1.268       .  A
C1618      C1829   1.480       .  S
O1619     Al1621   1.932       .  S
O1620      C1622   1.247       .  A
O1620     Al1621   1.826       .  S
Al1621     O1629   1.881       .  S
Al1621     O1631   1.912       .  S
Al1621     O1630   1.798       .  S
C1622      O1635   1.258   1_455  A
C1622      C1850   1.445   1_455  S
O1623     Al1625   1.925       .  S
O1624      C1637   1.259       .  A
Al1625     O1635   1.892   1_455  S
Al1625     O1630   1.801       .  S
O1626      C1633   1.270       .  A
O1627      C1636   1.260       .  A
O1627     Al1634   1.934       .  S
O1628     Al1634   1.898       .  S
O1629      C1636   1.250       .  A
O1630     Al1634   1.795       .  S
O1631      C1632   1.260       .  A
C1632      C1838   1.488       .  S
C1633      C2101   1.489       .  S
C1636      C1834   1.480       .  S
C1637      O1638   1.268       .  A
C1637      C2046   1.467       .  S
O1639      C1654   1.263       .  A
O1639     Al1647   1.899       .  S
C1640      O1650   1.264       .  A
C1640      O1641   1.265       .  A
C1640      C1825   1.477       .  S
O1641     Al1643   1.929       .  S
O1642      C1644   1.253       .  A
O1642     Al1643   1.842       .  S
Al1643     O1651   1.880       .  S
Al1643     O1653   1.923       .  S
Al1643     O1652   1.785       .  S
C1644      O1657   1.256       .  A
C1644      C1894   1.433       .  S
O1645      C1655   1.254       .  A
O1645     Al1647   1.893       .  S
O1646      C1659   1.266       .  A
O1646     Al1656   1.890       .  S
Al1647     O1660   1.911       .  S
Al1647     O1657   1.885       .  S
Al1647     O1652   1.784       .  S
O1648      C1655   1.267       .  A
O1648     Al1656   1.960       .  S
O1649      C1658   1.270       .  A
O1649     Al1656   1.957       .  S
O1650     Al1656   1.900       .  S
O1651      C1658   1.257       .  A
O1652     Al1656   1.786       .  S
O1653      C1654   1.262       .  A
C1654      C1874   1.482       .  S
C1655      C1822   1.484       .  S
C1658      C1833   1.482       .  S
C1659      O1660   1.264       .  A
C1659      C2030   1.465       .  S
O1661      C1676   1.264       .  A
O1661     Al1669   1.906       .  S
C1662      O1672   1.265       .  A
C1662      O1663   1.268       .  A
C1662      C1830   1.480       .  S
O1663     Al1665   1.941   1_554  S
O1664      C1666   1.252       .  A
O1664     Al1665   1.836       .  S
Al1665     O1673   1.865       .  S
Al1665     O1675   1.920       .  S
Al1665     O1674   1.779       .  S
C1666      O1679   1.259   1_455  A
C1666      C2106   1.434   1_455  S
O1667      C1677   1.259   1_556  A
O1667     Al1669   1.908   1_655  S
O1668      C1681   1.266       .  A
O1668     Al1678   1.885       .  S
Al1669     O1682   1.922       .  S
Al1669     O1679   1.895   1_455  S
Al1669     O1674   1.781       .  S
O1670      C1677   1.267   1_455  A
O1670     Al1678   1.955   1_554  S
O1671      C1680   1.268       .  A
O1671     Al1678   1.955       .  S
O1672     Al1678   1.898   1_554  S
O1673      C1680   1.252       .  A
O1674     Al1678   1.785       .  S
O1675      C1676   1.261       .  A
C1676      C2138   1.479       .  S
C1677      C1853   1.489       .  S
C1680      C1817   1.472       .  S
C1681      O1682   1.266       .  A
C1681      C2081   1.467       .  S
O1683      C1698   1.264       .  A
O1683     Al1691   1.913       .  S
C1684      O1694   1.264       .  A
C1684      O1685   1.264       .  A
C1684      C1826   1.477       .  S
O1685     Al1687   1.927   1_554  S
O1686      C1688   1.250       .  A
O1686     Al1687   1.828       .  S
Al1687     O1695   1.874       .  S
Al1687     O1697   1.917       .  S
Al1687     O1696   1.786       .  S
C1688      O1701   1.263       .  A
C1688      C1809   1.439       .  S
O1689     Al1691   1.922       .  S
O1690      C1703   1.271       .  A
Al1691     O1701   1.909       .  S
Al1691     O1696   1.789       .  S
O1692      C1699   1.252       .  A
O1693      C1702   1.267       .  A
O1693     Al1700   1.942       .  S
O1694     Al1700   1.905   1_554  S
O1695      C1702   1.255       .  A
O1696     Al1700   1.781       .  S
O1697      C1698   1.260       .  A
C1698      C1813   1.488       .  S
C1699      C1898   1.489       .  S
C1702      C1818   1.468       .  S
C1703      O1704   1.268       .  A
C1703      C2062   1.464       .  S
O1705      C1720   1.268       .  A
O1705     Al1713   1.916       .  S
C1706      O1716   1.265       .  A
C1706      O1707   1.265       .  A
C1706      C1801   1.480       .  S
O1707     Al1709   1.907       .  S
O1708      C1710   1.256       .  A
O1708     Al1709   1.911       .  S
Al1709     O1717   1.929       .  S
Al1709     O1719   1.878       .  S
Al1709     O1718   1.788       .  S
C1710      O1723   1.259       .  A
C1710      C1814   1.489       .  S
O1711      C1721   1.262       .  A
O1711     Al1713   1.896       .  S
O1712      C1725   1.259       .  A
O1712     Al1722   1.916       .  S
Al1713     O1726   1.915       .  S
Al1713     O1723   1.922       .  S
Al1713     O1718   1.792       .  S
O1714      C1721   1.253       .  A
O1714     Al1722   1.844       .  S
O1715      C1724   1.258       .  A
O1715     Al1722   1.892       .  S
O1716     Al1722   1.930       .  S
O1717      C1724   1.263       .  A
O1718     Al1722   1.791       .  S
O1719      C1720   1.266       .  A
C1720      C1870   1.463       .  S
C1721      C2070   1.444       .  S
C1724      C1805   1.475       .  S
C1725      O1726   1.263       .  A
C1725      C2034   1.494       .  S
O1727      C1742   1.273       .  A
O1727     Al1735   1.942       .  S
C1728      O1738   1.265       .  A
C1728      O1729   1.266       .  A
C1728      C1797   1.485       .  S
O1729     Al1731   1.913       .  S
O1730      C1732   1.262       .  A
O1730     Al1731   1.936       .  S
Al1731     O1739   1.923       .  S
Al1731     O1741   1.884       .  S
Al1731     O1740   1.787       .  S
C1732      O1745   1.260       .  A
C1732      C1918   1.503       .  S
O1733      C1743   1.264       .  A
O1733     Al1735   1.914       .  S
O1734      C1747   1.261       .  A
O1734     Al1744   1.925       .  S
Al1735     O1748   1.924       .  S
Al1735     O1745   1.927       .  S
Al1735     O1740   1.796       .  S
O1736      C1743   1.255       .  A
O1736     Al1744   1.845       .  S
O1737      C1746   1.260       .  A
O1737     Al1744   1.897       .  S
O1738     Al1744   1.934       .  S
O1739      C1746   1.263       .  A
O1740     Al1744   1.788       .  S
O1741      C1742   1.259       .  A
C1742      C1866   1.470       .  S
C1743      C1998   1.451       .  S
C1746      C1806   1.472       .  S
C1747      O1748   1.265       .  A
C1747      C1966   1.500       .  S
O1749      C1764   1.269       .  A
O1749     Al1757   1.920       .  S
C1750      O1760   1.265       .  A
C1750      O1751   1.265       .  A
C1750      C1802   1.480       .  S
O1751     Al1753   1.907   1_556  S
O1752      C1754   1.266       .  A
O1752     Al1753   1.942   1_556  S
Al1753     O1761   1.928       .  S
Al1753     O1763   1.876       .  S
Al1753     O1762   1.771       .  S
C1754      O1767   1.259       .  A
C1754      C2074   1.488       .  S
O1755      C1765   1.266       .  A
O1755     Al1757   1.932       .  S
O1756      C1769   1.267       .  A
O1756     Al1766   1.947       .  S
Al1757     O1770   1.900       .  S
Al1757     O1767   1.901   1_554  S
Al1757     O1762   1.785       .  S
O1758      C1765   1.250       .  A
O1758     Al1766   1.826       .  S
O1759      C1768   1.261       .  A
O1759     Al1766   1.889       .  S
O1760     Al1766   1.933   1_556  S
O1761      C1768   1.268       .  A
O1762     Al1766   1.777       .  S
O1763      C1764   1.258       .  A
C1764      C1890   1.454       .  S
C1765      C1810   1.445       .  S
C1768      C1793   1.465       .  S
C1769      O1770   1.259       .  A
C1769      C1821   1.489       .  S
O1771      C1786   1.268       .  A
O1771     Al1779   1.897       .  S
C1772      O1782   1.260       .  A
C1772      O1773   1.267       .  A
C1772      C1798   1.484       .  S
O1773     Al1775   1.925       .  S
O1774      C1776   1.252       .  A
O1774     Al1775   1.900       .  S
Al1775     O1783   1.919   1_556  S
Al1775     O1785   1.920   1_556  S
Al1775     O1784   1.798   1_556  S
C1776      O1789   1.253       .  A
C1776      C2002   1.491       .  S
O1777      C1787   1.267       .  A
O1777     Al1779   1.911   1_556  S
O1778      C1791   1.261       .  A
O1778     Al1788   1.918       .  S
Al1779     O1792   1.911       .  S
Al1779     O1789   1.916   1_554  S
Al1779     O1784   1.799       .  S
O1780      C1787   1.254   1_554  A
O1780     Al1788   1.848       .  S
O1781      C1790   1.246       .  A
O1781     Al1788   1.850       .  S
O1782     Al1788   1.892   1_556  S
O1783      C1790   1.256       .  A
O1784     Al1788   1.800       .  S
O1785      C1786   1.271       .  A
C1786      C1882   1.464       .  S
C1787      C1913   1.452       .  S
C1790      C1794   1.479       .  S
C1791      O1792   1.259       .  A
C1791      C1937   1.490       .  S
C1793      C1794   1.350       .  D
C1793      H1795   1.086       .  S
C1794      H1796   1.087       .  S
C1797      C1798   1.344       .  D
C1797      H1799   1.087       .  S
C1798      H1800   1.087       .  S
C1801      C1802   1.343       .  D
C1801      H1803   1.087       .  S
C1802      H1804   1.087       .  S
C1805      C1806   1.345       .  D
C1805      H1807   1.087       .  S
C1806      H1808   1.087       .  S
C1809      C1810   1.348   1_556  D
C1809      H1811   1.087       .  S
C1810      H1812   1.087       .  S
C1813      C1814   1.348       .  D
C1813      H1815   1.086       .  S
C1814      H1816   1.087       .  S
C1817      C1818   1.352       .  D
C1817      H1819   1.087       .  S
C1818      H1820   1.087       .  S
C1821      C1822   1.347       .  D
C1821      H1823   1.087       .  S
C1822      H1824   1.086       .  S
C1825      C1826   1.341       .  D
C1825      H1827   1.087       .  S
C1826      H1828   1.087       .  S
C1829      C1830   1.345       .  D
C1829      H1831   1.087       .  S
C1830      H1832   1.087       .  S
C1833      C1834   1.355       .  D
C1833      H1835   1.087       .  S
C1834      H1836   1.087       .  S
C1837      C1838   1.352   1_655  D
C1837      H1839   1.088       .  S
C1838      H1840   1.086       .  S
C1841      C1842   1.355       .  D
C1841      H1843   1.087       .  S
C1842      H1844   1.087       .  S
C1845      C1846   1.346       .  D
C1845      H1847   1.087       .  S
C1846      H1848   1.087       .  S
C1849      C1850   1.346   1_455  D
C1849      H1851   1.087       .  S
C1850      H1852   1.088       .  S
C1853      C1854   1.350       .  D
C1853      H1855   1.086       .  S
C1854      H1856   1.087       .  S
C1857      C1858   1.346       .  D
C1857      H1859   1.087       .  S
C1858      H1860   1.087       .  S
C1861      C1862   1.359       .  D
C1861      H1863   1.086       .  S
C1862      H1864   1.087       .  S
C1865      C1866   1.338       .  D
C1865      H1867   1.088       .  S
C1866      H1868   1.086       .  S
C1869      C1870   1.339       .  D
C1869      H1871   1.087       .  S
C1870      H1872   1.088       .  S
C1873      C1874   1.350       .  D
C1873      H1875   1.087       .  S
C1874      H1876   1.086       .  S
C1877      C1878   1.359       .  D
C1877      H1879   1.086       .  S
C1878      H1880   1.086       .  S
C1881      C1882   1.341       .  D
C1881      H1883   1.087       .  S
C1882      H1884   1.086       .  S
C1885      C1886   1.340       .  D
C1885      H1887   1.087       .  S
C1886      H1888   1.087       .  S
C1889      C1890   1.335       .  D
C1889      H1891   1.088       .  S
C1890      H1892   1.087       .  S
C1893      H1895   1.087       .  S
C1894      H1896   1.088       .  S
C1897      C1898   1.353       .  D
C1897      H1899   1.086       .  S
C1898      H1900   1.087       .  S
C1901      C1902   1.348       .  D
C1901      H1903   1.087       .  S
C1902      H1904   1.087       .  S
C1905      C1906   1.355       .  D
C1905      H1907   1.087       .  S
C1906      H1908   1.087       .  S
C1909      C1910   1.354       .  D
C1909      H1911   1.087       .  S
C1910      H1912   1.086       .  S
C1913      C1914   1.352       .  D
C1913      H1915   1.087       .  S
C1914      H1916   1.086       .  S
C1917      C1918   1.356       .  D
C1917      H1919   1.086       .  S
C1918      H1920   1.087       .  S
C1921      C1922   1.343       .  D
C1921      H1923   1.087       .  S
C1922      H1924   1.087       .  S
C1925      C1926   1.345       .  D
C1925      H1927   1.088       .  S
C1926      H1928   1.086       .  S
C1929      C1930   1.344       .  D
C1929      H1931   1.088       .  S
C1930      H1932   1.087       .  S
C1933      C1934   1.351       .  D
C1933      H1935   1.086       .  S
C1934      H1936   1.087       .  S
C1937      C1938   1.352       .  D
C1937      H1939   1.086       .  S
C1938      H1940   1.087       .  S
C1941      C1942   1.344       .  D
C1941      H1943   1.087       .  S
C1942      H1944   1.087       .  S
C1945      C1946   1.344       .  D
C1945      H1947   1.087       .  S
C1946      H1948   1.087       .  S
C1949      C1950   1.349       .  D
C1949      H1951   1.087       .  S
C1950      H1952   1.087       .  S
C1953      C1954   1.353       .  D
C1953      H1955   1.085       .  S
C1954      H1956   1.088       .  S
C1957      C1958   1.336       .  D
C1957      H1959   1.088       .  S
C1958      H1960   1.087       .  S
C1961      C1962   1.335       .  D
C1961      H1963   1.087       .  S
C1962      H1964   1.088       .  S
C1965      C1966   1.356       .  D
C1965      H1967   1.087       .  S
C1966      H1968   1.086       .  S
C1969      C1970   1.356       .  D
C1969      H1971   1.085       .  S
C1970      H1972   1.088       .  S
C1973      H1975   1.087       .  S
C1974      H1976   1.087       .  S
C1977      C1978   1.345       .  D
C1977      H1979   1.087       .  S
C1978      H1980   1.087       .  S
C1981      C1982   1.348       .  D
C1981      H1983   1.087       .  S
C1982      H1984   1.087       .  S
C1985      C1986   1.345       .  D
C1985      H1987   1.086       .  S
C1986      H1988   1.087       .  S
C1989      C1990   1.351       .  D
C1989      H1991   1.087       .  S
C1990      H1992   1.087       .  S
C1993      C1994   1.332       .  D
C1993      H1995   1.088       .  S
C1994      H1996   1.087       .  S
C1997      C1998   1.346       .  D
C1997      H1999   1.087       .  S
C1998      H2000   1.087       .  S
C2001      C2002   1.352       .  D
C2001      H2003   1.086       .  S
C2002      H2004   1.087       .  S
C2005      C2006   1.344       .  D
C2005      H2007   1.087       .  S
C2006      H2008   1.087       .  S
C2009      C2010   1.348       .  D
C2009      H2011   1.086       .  S
C2010      H2012   1.087       .  S
C2013      C2014   1.340       .  D
C2013      H2015   1.088       .  S
C2014      H2016   1.087       .  S
C2017      C2018   1.349       .  D
C2017      H2019   1.087       .  S
C2018      H2020   1.086       .  S
C2021      C2022   1.342       .  D
C2021      H2023   1.087       .  S
C2022      H2024   1.087       .  S
C2025      C2026   1.353       .  D
C2025      H2027   1.087       .  S
C2026      H2028   1.086       .  S
C2029      C2030   1.336       .  D
C2029      H2031   1.087       .  S
C2030      H2032   1.088       .  S
C2033      C2034   1.352       .  D
C2033      H2035   1.087       .  S
C2034      H2036   1.086       .  S
C2037      C2038   1.353       .  D
C2037      H2039   1.088       .  S
C2038      H2040   1.086       .  S
C2041      C2042   1.353       .  D
C2041      H2043   1.087       .  S
C2042      H2044   1.087       .  S
C2045      C2046   1.344       .  D
C2045      H2047   1.087       .  S
C2046      H2048   1.087       .  S
C2049      C2050   1.346       .  D
C2049      H2051   1.087       .  S
C2050      H2052   1.087       .  S
C2053      C2054   1.355   1_655  D
C2053      H2055   1.087       .  S
C2054      H2056   1.086       .  S
C2057      C2058   1.353       .  D
C2057      H2059   1.087       .  S
C2058      H2060   1.087   1_655  S
C2061      C2062   1.337       .  D
C2061      H2063   1.087       .  S
C2062      H2064   1.088       .  S
C2065      C2066   1.344       .  D
C2065      H2067   1.087       .  S
C2066      H2068   1.087       .  S
C2069      C2070   1.345       .  D
C2069      H2071   1.087       .  S
C2070      H2072   1.088       .  S
C2073      C2074   1.351       .  D
C2073      H2075   1.086       .  S
C2074      H2076   1.087       .  S
C2077      C2078   1.355       .  D
C2077      H2079   1.087       .  S
C2078      H2080   1.086       .  S
C2081      C2082   1.338       .  D
C2081      H2083   1.087       .  S
C2082      H2084   1.087       .  S
C2085      C2086   1.344       .  D
C2085      H2087   1.087       .  S
C2086      H2088   1.087       .  S
C2089      C2090   1.342       .  D
C2089      H2091   1.087       .  S
C2090      H2092   1.087       .  S
C2093      C2094   1.356       .  D
C2093      H2095   1.087   1_655  S
C2094      H2096   1.086       .  S
C2097      C2098   1.345       .  D
C2097      H2099   1.086       .  S
C2098      H2100   1.087       .  S
C2101      C2102   1.359   1_455  D
C2101      H2103   1.087       .  S
C2102      H2104   1.086       .  S
C2105      H2107   1.087   1_554  S
C2106      H2108   1.088       .  S
C2109      C2110   1.351   1_455  D
C2109      H2111   1.086       .  S
C2110      H2112   1.088       .  S
C2113      C2114   1.334       .  D
C2113      H2115   1.088       .  S
C2114      H2116   1.087       .  S
C2117      C2118   1.356       .  D
C2117      H2119   1.087       .  S
C2118      H2120   1.086       .  S
C2121      C2122   1.354       .  D
C2121      H2123   1.087       .  S
C2122      H2124   1.087       .  S
C2125      C2126   1.355       .  D
C2125      H2127   1.086       .  S
C2126      H2128   1.087       .  S
C2129      C2130   1.348       .  D
C2129      H2131   1.087   1_556  S
C2130      H2132   1.087       .  S
C2133      C2134   1.340       .  D
C2133      H2135   1.087       .  S
C2134      H2136   1.087       .  S
C2137      C2138   1.348   1_655  D
C2138      H2140   1.086       .  S
C2141      C2142   1.346       .  D
C2141      H2143   1.087       .  S
C2142      H2144   1.087       .  S
C2145      C2146   1.347       .  D
C2145      H2147   1.086       .  S
C2146      H2148   1.088   1_655  S
C2149      C2150   1.345       .  D
C2149      H2151   1.087   1_655  S
C2150      H2152   1.087       .  S
C2153      C2154   1.342       .  D
C2153      H2155   1.087       .  S
C2154      H2156   1.088       .  S
C2157      C2158   1.347       .  D
C2157      H2159   1.087       .  S
C2158      H2160   1.086       .  S
C2161      H2163   1.087       .  S
C2162      H2164   1.087       .  S
C2165      C2166   1.345       .  D
C2165      H2167   1.087       .  S
C2166      H2168   1.087       .  S
C2169      C2170   1.351       .  D
C2169      H2171   1.087       .  S
C2170      H2172   1.087       .  S
C2173      C2174   1.351       .  D
C2173      H2175   1.086       .  S
C2174      H2176   1.087       .  S
