geometry optimzed in LAMMPS
_audit_creation_date              2020-12-01 
_audit_creation_method            'lammps2cif' 
_symmetry_space_group_name_H-M    'P1' 
_symmetry_Int_Tables_number       1 
_symmetry_cell_setting            triclinic 
loop_ 
_symmetry_equiv_pos_as_xyz 
  x,y,z 
_cell_length_a                    43.29411622 
_cell_length_b                    32.56205073586879 
_cell_length_c                    43.908631426137184 
_cell_angle_alpha                 91.06376808071222 
_cell_angle_beta                  108.4115475515873 
_cell_angle_gamma                 90.76834084965024 
loop_ 
_atom_site_label 
_atom_site_type_symbol 
_atom_site_fract_x 
_atom_site_fract_y 
_atom_site_fract_z 
_atom_site_charge 
O1          O  0.33760487  0.87602158  0.43572890    -0.85900
O2          O  0.36517506  0.94674631  0.42434813    -0.82900
C3          C  0.37315508  0.98409742  0.42702805     0.97600
O4          O  0.37996306  0.00237333  0.45420030    -0.83000
O5          O  0.33077110  0.99498479  0.48461226    -0.85600
C6          C  0.31471756  0.98012585  0.50148129     1.02100
O7          O  0.32486161  0.94954304  0.51813788    -0.78400
O8          O  0.30912108  0.89940759  0.46563492    -0.78600
C9          C  0.30993000  0.88372674  0.43957234     1.02100
O10         O  0.40160428  0.85736226  0.48436063    -0.85900
O11         O  0.42801471  0.93452624  0.47198558    -0.82900
C12         C  0.44126502  0.96088988  0.49478288     0.97600
O13         O  0.42515819  0.97470952  0.51186356    -0.83000
O14         O  0.38367895  0.96803297  0.04492973    -0.85600
C15         C  0.38460749  0.93534385  0.06070347     1.02100
O16         O  0.37777167  0.90077354  0.04643593    -0.78400
O17         O  0.35506101  0.84408715  0.99533646    -0.78500
C18         C  0.38372169  0.83340661  0.49406513     1.02000
Cr19       Cr  0.38250761  0.90515039  0.45679496     1.93700
Cr20       Cr  0.37822808  0.98235682  0.49753211     1.93200
Cr21       Cr  0.34529010  0.90201428  0.50552801     1.39100
O22         O  0.36943378  0.92974986  0.48663774    -1.23600
O23         O  0.43766964  0.62656019  0.04981865    -0.85900
O24         O  0.45794793  0.55674816  0.02988745    -0.82900
C25         C  0.45861129  0.52207493  0.01756072     0.97600
O26         O  0.43314915  0.50055631  0.00619453    -0.83000
O27         O  0.40276759  0.48777526  0.05331221    -0.85600
C28         C  0.38631247  0.49692896  0.07168899     1.02100
O29         O  0.37081690  0.52989973  0.06805107    -0.78400
O30         O  0.41663319  0.59248698  0.08077725    -0.78600
C31         C  0.43998497  0.61375605  0.07738614     1.02100
O32         O  0.39393771  0.63415568  0.49169311    -0.85900
O33         O  0.41772934  0.56684524  0.46837447    -0.82900
C34         C  0.39412155  0.54498177  0.45076296     0.97600
O35         O  0.37533821  0.52689443  0.46354514    -0.83000
O36         O  0.34323939  0.50417649  0.00648049    -0.85600
C37         C  0.32160543  0.52942458  0.00653577     1.02100
O38         O  0.32905489  0.56711148  0.01493783    -0.78400
O39         O  0.37278472  0.63982190  0.03035914    -0.78500
C40         C  0.37789857  0.65455165  0.00573445     1.02000
Cr41       Cr  0.42215642  0.59257294  0.00909621     1.93700
Cr42       Cr  0.38884014  0.50815951  0.00808352     1.93200
Cr43       Cr  0.37370714  0.58151210  0.04624727     1.39100
O44         O  0.39421201  0.56080166  0.02053295    -1.23600
O45         O  0.16361194  0.90396727  0.33828329    -0.85900
O46         O  0.11872129  0.96571710  0.32811446    -0.82900
C47         C  0.13465384  0.99923612  0.33423175     0.97600
O48         O  0.15220764  0.00987758  0.31732132    -0.83000
O49         O  0.18451484  0.00092029  0.27117231    -0.85600
C50         C  0.20924493  0.98005563  0.28379855     1.02100
O51         O  0.20657430  0.94553621  0.29450770    -0.78400
O52         O  0.18439073  0.87236093  0.30583074    -0.78600
C53         C  0.18685995  0.88385237  0.33395574     1.02100
O54         O  0.12033590  0.85893791  0.28283646    -0.85900
O55         O  0.07792965  0.93007321  0.27115646    -0.82900
C56         C  0.07134036  0.96800014  0.26572749     0.97600
O57         O  0.09362569  0.99417745  0.26833764    -0.83000
O58         O  0.12516095  0.97882470  0.22383187    -0.85600
C59         C  0.14412765  0.96165750  0.21093801     1.02100
O60         O  0.16685387  0.93945746  0.22746585    -0.78400
O61         O  0.13917216  0.86912483  0.24294790    -0.78500
C62         C  0.12778667  0.84488719  0.25891104     1.02000
Cr63       Cr  0.12146327  0.91557744  0.30309257     1.93700
Cr64       Cr  0.13932933  0.99167740  0.27100786     1.93200
Cr65       Cr  0.17197648  0.90918511  0.26830325     1.39100
O66         O  0.14330109  0.93860288  0.27997797    -1.23600
O67         O  0.06121936  0.59774429  0.20497105    -0.85900
O68         O  0.07595669  0.54786248  0.25618233    -0.82900
C69         C  0.06805172  0.51619515  0.23888130     0.97600
O70         O  0.08601881  0.50266563  0.22344943    -0.83000
O71         O  0.13790737  0.50148513  0.19691697    -0.85600
C72         C  0.12958877  0.51866717  0.16999419     1.02100
O73         O  0.11873203  0.55417261  0.16766382    -0.78400
O74         O  0.09160782  0.62423655  0.17826585    -0.78600
C75         C  0.06338544  0.61430281  0.17995541     1.02100
O76         O  0.10889542  0.65406087  0.24058540    -0.85900
O77         O  0.12888612  0.59653520  0.28988825    -0.82900
C78         C  0.13512993  0.56161274  0.30247708     0.97600
O79         O  0.13287974  0.52930984  0.28502411    -0.83000
O80         O  0.17905231  0.53432698  0.25646292    -0.85600
C81         C  0.19525567  0.54702790  0.23931802     1.02100
O82         O  0.18184148  0.57072676  0.21577436    -0.78400
O83         O  0.15368324  0.64728515  0.22835440    -0.78500
C84         C  0.13447218  0.66946398  0.23768286     1.02000
Cr85       Cr  0.09612015  0.59748183  0.24652410     1.93700
Cr86       Cr  0.13275543  0.52072538  0.23937629     1.93200
Cr87       Cr  0.13602166  0.59754670  0.20012056     1.39100
O88         O  0.12244696  0.57231733  0.22896415    -1.23600
O89         O  0.42309836  0.38471345  0.31612828    -0.85900
O90         O  0.39879293  0.45793555  0.32612509    -0.82900
C91         C  0.39040981  0.49461266  0.32239166     0.97600
O92         O  0.38021263  0.50906914  0.29441380    -0.83000
O93         O  0.42872846  0.50245081  0.26408307    -0.85600
C94         C  0.44580054  0.48673186  0.24853852     1.02100
O95         O  0.43747718  0.45338319  0.23347485    -0.78400
O96         O  0.45231812  0.40747125  0.28701418    -0.78600
C97         C  0.45095129  0.39220112  0.31265479     1.02100
O98         O  0.35934676  0.36239686  0.26928845    -0.85900
O99         O  0.33415700  0.44122967  0.28101595    -0.82900
C100        C  0.31987795  0.46320391  0.25669072     0.97600
O101        O  0.33499019  0.47327913  0.23772183    -0.83000
O102        O  0.37954389  0.47244290  0.20535879    -0.85600
C103        C  0.37757598  0.43878039  0.18942467     1.02100
O104        O  0.38286111  0.40492153  0.20368099    -0.78400
O105        O  0.40261449  0.35105687  0.25513143    -0.78500
C106        C  0.37720634  0.33801476  0.25994676     1.02000
Cr107      Cr  0.37929888  0.41296841  0.29528930     1.93700
Cr108      Cr  0.38181642  0.48551509  0.25149911     1.93200
Cr109      Cr  0.41649943  0.40616212  0.24636087     1.39100
O110        O  0.39176125  0.43460050  0.26414795    -1.23600
O111        O  0.32647523  0.12596140  0.20649003    -0.85900
O112        O  0.31246799  0.05309965  0.22569195    -0.82900
C113        C  0.31336846  0.01948023  0.23888328     0.97600
O114        O  0.33954244  0.00074172  0.24920946    -0.83000
O115        O  0.36559033  0.99216364  0.19845364    -0.85600
C116        C  0.37991829  0.00247524  0.17861502     1.02100
O117        O  0.39422328  0.03698213  0.18145869    -0.78400
O118        O  0.34609039  0.09473502  0.17266027    -0.78600
C119        C  0.32295860  0.11375181  0.17820936     1.02100
O120        O  0.37720278  0.13891093  0.26570205    -0.85900
O121        O  0.35751795  0.06748147  0.28975307    -0.82900
C122        C  0.38068524  0.04471961  0.30482481     0.97600
O123        O  0.39927539  0.02998064  0.29031798    -0.83000
O124        O  0.42650139  0.01548524  0.24176814    -0.85600
C125        C  0.44636144  0.04325271  0.24020174     1.02100
O126        O  0.43707112  0.08006456  0.23354486    -0.78400
O127        O  0.39032363  0.14643032  0.22197876    -0.78500
C128        C  0.38474002  0.16212041  0.24636531     1.02000
Cr129      Cr  0.34592173  0.09400194  0.24622348     1.93700
Cr130      Cr  0.38204377  0.01392944  0.24382241     1.93200
Cr131      Cr  0.39086020  0.08853151  0.20484190     1.39100
O132        O  0.37395704  0.06591533  0.23247508    -1.23600
O133        O  0.20125902  0.10132875  0.04726847    -0.85900
O134        O  0.18652458  0.05115175  0.99492088    -0.82900
C135        C  0.19631893  0.02038008  0.01145878     0.97600
O136        O  0.17998383  0.00534533  0.02793875    -0.83000
O137        O  0.13146618  0.99813598  0.05808364    -0.85600
C138        C  0.14070059  0.01588175  0.08548210     1.02100
O139        O  0.14669691  0.05372636  0.08809975    -0.78400
O140        O  0.17218608  0.12515026  0.07640483    -0.78600
C141        C  0.19998164  0.11718079  0.07310264     1.02100
O142        O  0.15424993  0.15674179  0.51641129    -0.85900
O143        O  0.13143210  0.09940788  0.46547201    -0.82900
C144        C  0.12478512  0.06454206  0.45152384     0.97600
O145        O  0.12635632  0.03218800  0.46770140    -0.83000
O146        O  0.08561624  0.02562797  0.00043465    -0.85600
C147        C  0.06967586  0.03878511  0.01790586     1.02100
O148        O  0.08308489  0.06451670  0.04103816    -0.78400
O149        O  0.10796040  0.14167605  0.02758887    -0.78500
C150        C  0.12552376  0.16569778  0.01754880     1.02000
Cr151      Cr  0.16548532  0.09837644  0.00708283     1.93700
Cr152      Cr  0.13258554  0.01795081  0.01476210     1.93200
Cr153      Cr  0.12802206  0.09478871  0.05561644     1.39100
O154        O  0.14125221  0.07047347  0.02571360    -1.23600
O155        O  0.10007018  0.40382285  0.41490326    -0.85900
O156        O  0.15209605  0.45908027  0.42702102    -0.82900
C157        C  0.13947790  0.49408872  0.42275496     0.97600
O158        O  0.12469107  0.50746529  0.44148177    -0.83000
O159        O  0.09334588  0.50524726  0.48779984    -0.85600
C160        C  0.06598158  0.48827279  0.47535605     1.02100
O161        O  0.06343627  0.45284991  0.46333926    -0.78400
O162        O  0.07655209  0.37654909  0.44668018    -0.78600
C163        C  0.07493514  0.38725897  0.41888693     1.02100
O164        O  0.13872467  0.35392079  0.46758444    -0.85900
O165        O  0.18889881  0.41777719  0.48228429    -0.82900
C166        C  0.20038585  0.45390391  0.49153560     0.97600
O167        O  0.18190204  0.48382625  0.48918553    -0.83000
O168        O  0.14949110  0.47039905  0.03283887    -0.85600
C169        C  0.12971856  0.45662117  0.04625706     1.02100
O170        O  0.10409687  0.43751241  0.02980414    -0.78400
O171        O  0.12077030  0.36361153  0.00878279    -0.78500
C172        C  0.13149317  0.34221637  0.49202531     1.02000
Cr173      Cr  0.14374349  0.40995057  0.44996975     1.93700
Cr174      Cr  0.13632356  0.48858765  0.48673076     1.93200
Cr175      Cr  0.09406101  0.41187631  0.48616858     1.39100
O176        O  0.12544570  0.43655999  0.47494598    -1.23600
C177        C  0.12081136  0.22545769  0.48179594    -0.20800
C178        C  0.11766261  0.20884832  0.00951735    -0.07400
C179        C  0.11991191  0.23902008  0.03357416     0.13500
C180        C  0.12352673  0.28066201  0.02699739    -0.20900
C181        C  0.12589930  0.29289467  0.99712824    -0.07400
C182        C  0.12411292  0.26664111  0.47432230     0.13500
C183        C  0.12127712  0.27619117  0.44005390    -0.24200
H184        H  0.11848767  0.20163268  0.46355137     0.14700
H185        H  0.12553443  0.30368106  0.04574368     0.14800
C186        C  0.12047578  0.22704704  0.06670239    -0.24200
H187        H  0.11579051  0.24821204  0.42425910     0.05000
H188        H  0.14457090  0.28956163  0.43887779     0.08200
H189        H  0.10116647  0.29786954  0.43025375     0.08200
H190        H  0.14170942  0.20739514  0.07760195     0.08200
H191        H  0.09774025  0.20978064  0.06521190     0.08200
H192        H  0.12237964  0.25436599  0.08277393     0.05000
C193        C  0.29152972  0.12099556  0.12003183    -0.20800
C194        C  0.29148125  0.12116567  0.15192563    -0.07400
C195        C  0.26104085  0.12627202  0.15765179     0.13500
C196        C  0.23186184  0.12722372  0.13154955    -0.20900
C197        C  0.23178130  0.12417857  0.09963224    -0.07400
C198        C  0.26254472  0.12335580  0.09399974     0.13500
C199        C  0.26565106  0.12549703  0.06073758    -0.24200
H200        H  0.31457924  0.11856101  0.11533647     0.14700
H201        H  0.20876273  0.12865269  0.13621158     0.14800
C202        C  0.25841029  0.12938328  0.19104238    -0.24200
H203        H  0.29141929  0.12944438  0.06151858     0.05000
H204        H  0.25213308  0.15220945  0.04811681     0.08200
H205        H  0.25637342  0.09675713  0.04673226     0.08200
H206        H  0.27268951  0.15643909  0.20415845     0.08200
H207        H  0.26720644  0.10099040  0.20415692     0.08200
H208        H  0.23285853  0.13329878  0.19070745     0.05000
C209        C  0.48247558  0.37823431  0.37027333    -0.20800
C210        C  0.48259255  0.38444054  0.33876440    -0.07400
C211        C  0.01400875  0.38462038  0.33386719     0.13500
C212        C  0.04317421  0.38513087  0.36000041    -0.20900
C213        C  0.04317071  0.38196863  0.39181314    -0.07400
C214        C  0.01242070  0.37604273  0.39697296     0.13500
C215        C  0.50884806  0.36670092  0.42887668    -0.24200
H216        H  0.45932208  0.37579162  0.37476253     0.14700
H217        H  0.06630001  0.38755662  0.35541926     0.14800
C218        C  0.01671500  0.38134683  0.30047468    -0.24200
H219        H  0.48312433  0.36184976  0.42797218     0.05000
H220        H  0.02004548  0.39233260  0.44691089     0.08200
H221        H  0.02244561  0.33790805  0.43840804     0.08200
H222        H  0.00801335  0.40934364  0.28687083     0.08200
H223        H  0.00227460  0.35429207  0.28751320     0.08200
H224        H  0.04228733  0.37723777  0.30094756     0.05000
C225        C  0.37938436  0.22495077  0.27822418    -0.20800
C226        C  0.38172696  0.20774615  0.24930936    -0.07400
C227        C  0.37694713  0.23395194  0.22262690     0.13500
C228        C  0.37181826  0.27596167  0.22625370    -0.20900
C229        C  0.37107728  0.29320307  0.25544673    -0.07400
C230        C  0.37439961  0.26729899  0.28164808     0.13500
C231        C  0.37420740  0.28461409  0.31361633    -0.24200
H232        H  0.38203147  0.20532467  0.29851577     0.14700
H233        H  0.36988322  0.29619349  0.20639709     0.14800
C234        C  0.37697843  0.21865984  0.18995249    -0.24200
H235        H  0.37714011  0.26025465  0.33163287     0.05000
H236        H  0.35073416  0.29991563  0.31078135     0.08200
H237        H  0.39450887  0.30733879  0.32300103     0.08200
H238        H  0.35739543  0.19506870  0.18032251     0.08200
H239        H  0.40104595  0.20578139  0.19160620     0.08200
H240        H  0.37242962  0.24365490  0.17228516     0.05000
C241        C  0.23952212  0.52101247  0.21889136    -0.20800
C242        C  0.22855069  0.52858280  0.24515521    -0.07400
C243        C  0.24698490  0.51170049  0.27518930     0.13500
C244        C  0.27542365  0.48899687  0.27778180    -0.20900
C245        C  0.28657497  0.48184669  0.25142940    -0.07400
C246        C  0.26766397  0.49813234  0.22137916     0.13500
C247        C  0.27674370  0.49192287  0.19136898    -0.24200
H248        H  0.22523451  0.53245177  0.19545423     0.14700
H249        H  0.28947187  0.47734760  0.30095311     0.14800
C250        C  0.23735830  0.51770008  0.30511153    -0.24200
H251        H  0.25739630  0.50202699  0.16959363     0.05000
H252        H  0.28096516  0.45889797  0.18781773     0.08200
H253        H  0.29874707  0.51089962  0.19356281     0.08200
H254        H  0.21455411  0.50020648  0.30282273     0.08200
H255        H  0.23408512  0.55085738  0.30927672     0.08200
H256        H  0.25617123  0.50635761  0.32674705     0.05000
C257        C  0.00384013  0.49116210  0.27287203    -0.20800
C258        C  0.47661703  0.50362508  0.24791736    -0.07400
C259        C  0.48023412  0.51361206  0.21803831     0.13500
C260        C  0.01027909  0.51182815  0.21363737    -0.20900
C261        C  0.03724458  0.49827256  0.23813381    -0.07400
C262        C  0.03388710  0.48695251  0.26783637     0.13500
C263        C  0.06240237  0.47121888  0.29443943    -0.24200
H264        H  0.00082521  0.48128556  0.29526999     0.14700
H265        H  0.01344974  0.52282723  0.19158959     0.14800
C266        C  0.45147514  0.52559171  0.19018036    -0.24200
H267        H  0.05533838  0.46270680  0.31574925     0.05000
H268        H  0.08201401  0.49500444  0.30240725     0.08200
H269        H  0.07204500  0.44353921  0.28569940     0.08200
H270        H  0.44014593  0.55315421  0.19701885     0.08200
H271        H  0.43312810  0.50027880  0.18344967     0.08200
H272        H  0.45874784  0.53252460  0.16870582     0.05000
C273        C  0.11830309  0.54703938  0.38093946    -0.20800
C274        C  0.14244652  0.51867781  0.39538963    -0.07400
C275        C  0.16813652  0.51259864  0.38210455     0.13500
C276        C  0.16679730  0.53101813  0.35315453    -0.20900
C277        C  0.14097448  0.55588089  0.33712483    -0.07400
C278        C  0.11720185  0.56564177  0.35188429     0.13500
C279        C  0.08944122  0.59335349  0.33601130    -0.24200
H280        H  0.09906970  0.55277864  0.39131444     0.14700
H281        H  0.18518159  0.52404041  0.34188868     0.14800
C282        C  0.19729641  0.48695977  0.39802170    -0.24200
H283        H  0.07301226  0.59760337  0.35075029     0.05000
H284        H  0.07476076  0.57996739  0.31237423     0.08200
H285        H  0.09916545  0.62403726  0.33258940     0.08200
H286        H  0.19018543  0.45404201  0.39736735     0.08200
H287        H  0.20854445  0.49823634  0.42312173     0.08200
H288        H  0.21614285  0.48920162  0.38580672     0.05000
C289        C  0.12236008  0.45945341  0.13095259    -0.20800
C290        C  0.13420133  0.49940634  0.14090648    -0.07400
C291        C  0.14865442  0.52228174  0.12154262     0.13500
C292        C  0.14895928  0.50574049  0.09202256    -0.20900
C293        C  0.13435480  0.46752245  0.08047905    -0.07400
C294        C  0.12181076  0.44337196  0.10069626     0.13500
C295        C  0.10782421  0.40076813  0.09066676    -0.24200
H296        H  0.11194442  0.44174496  0.14602536     0.14700
H297        H  0.15899575  0.52419263  0.07685861     0.14800
C298        C  0.16362339  0.56457317  0.13149678    -0.24200
H299        H  0.10164720  0.38529518  0.11038647     0.05000
H300        H  0.12585790  0.38170423  0.08394349     0.08200
H301        H  0.08510533  0.40216529  0.07005562     0.08200
H302        H  0.18234006  0.56354924  0.15545425     0.08200
H303        H  0.14468139  0.58683238  0.13210938     0.08200
H304        H  0.17572200  0.57639471  0.11445942     0.05000
C305        C  0.13809839  0.78475995  0.22689614    -0.20800
C306        C  0.12904630  0.79940007  0.25335139    -0.07400
C307        C  0.12596977  0.77045903  0.27616439     0.13500
C308        C  0.13131428  0.72878999  0.27153709    -0.20900
C309        C  0.13922330  0.71420788  0.24473433    -0.07400
C310        C  0.14284249  0.74258222  0.22215936     0.13500
C311        C  0.15020631  0.72828653  0.19242635    -0.24200
H312        H  0.14123136  0.80635199  0.20957261     0.14700
H313        H  0.12800053  0.70679826  0.28852529     0.14800
C314        C  0.11707229  0.78235951  0.30569401    -0.24200
H315        H  0.15196938  0.75438081  0.17708414     0.05000
H316        H  0.13058340  0.70694179  0.17801176     0.08200
H317        H  0.17377445  0.71219472  0.19930889     0.08200
H318        H  0.09309636  0.79750071  0.29858085     0.08200
H319        H  0.13617734  0.80309963  0.32164953     0.08200
H320        H  0.11501227  0.75528688  0.32000372     0.05000
C321        C  0.10125873  0.01792165  0.36858812    -0.20800
C322        C  0.12998979  0.02529547  0.36065316    -0.07400
C323        C  0.15338527  0.05382034  0.37968901     0.13500
C324        C  0.14886139  0.07081626  0.40774093    -0.20900
C325        C  0.12194202  0.05920734  0.41735783    -0.07400
C326        C  0.09731928  0.03367479  0.39694165     0.13500
C327        C  0.06734877  0.02177499  0.40555645    -0.24200
H328        H  0.08239514  0.99767474  0.35343812     0.14700
H329        H  0.16781904  0.09020486  0.42366530     0.14800
C330        C  0.18391372  0.06450954  0.37184521    -0.24200
H331        H  0.04996180  0.00275785  0.38625394     0.05000
H332        H  0.05468000  0.04987016  0.40940936     0.08200
H333        H  0.07407707  0.00359552  0.42773364     0.08200
H334        H  0.17745486  0.07885321  0.34795981     0.08200
H335        H  0.19803354  0.03634907  0.37163357     0.08200
H336        H  0.19980186  0.08660077  0.38975494     0.05000
C337        C  0.11410746  0.97937216  0.12026079    -0.20800
C338        C  0.14291468  0.99385970  0.11540441    -0.07400
C339        C  0.17212469  0.99477118  0.14154638     0.13500
C340        C  0.17170198  0.98230174  0.17188133    -0.20900
C341        C  0.14257257  0.97064901  0.17735690    -0.07400
C342        C  0.11344176  0.96845292  0.15105272     0.13500
C343        C  0.08176984  0.95454494  0.15532818    -0.24200
H344        H  0.09170251  0.97872562  0.10025948     0.14700
H345        H  0.19417388  0.98356061  0.19193926     0.14800
C346        C  0.20379056  0.00947948  0.13760204    -0.24200
H347        H  0.06161079  0.95351502  0.13216636     0.05000
H348        H  0.07491520  0.97607767  0.17189048     0.08200
H349        H  0.08433773  0.92325923  0.16536440     0.08200
H350        H  0.20220416  0.04221164  0.13083797     0.08200
H351        H  0.20920240  0.99071773  0.11861418     0.08200
H352        H  0.22447762  0.00687197  0.16015196     0.05000
C353        C  0.48152028  0.98948697  0.22950765    -0.20800
C354        C  0.47952312  0.02822216  0.24396393    -0.07400
C355        C  0.00724973  0.04729807  0.26377894     0.13500
C356        C  0.03670997  0.02614615  0.27093591    -0.20900
C357        C  0.03844391  0.98578674  0.25875125    -0.07400
C358        C  0.00998847  0.96692794  0.23819147     0.13500
C359        C  0.01064029  0.92555293  0.22256486    -0.24200
H360        H  0.45977567  0.97550201  0.21300188     0.14700
H361        H  0.05850437  0.04121237  0.28633396     0.14800
C362        C  0.50710356  0.08711734  0.28165889    -0.24200
H363        H  0.98621548  0.91595735  0.20625384     0.05000
H364        H  0.01877416  0.90199269  0.24121608     0.08200
H365        H  0.02760769  0.92677414  0.20817146     0.08200
H366        H  0.48956087  0.08616837  0.29542900     0.08200
H367        H  0.49960536  0.11084531  0.26303621     0.08200
H368        H  0.03143120  0.10065744  0.29246506     0.05000
C369        C  0.25269732  0.95862577  0.26418192    -0.20800
C370        C  0.23904237  0.99034165  0.27758272    -0.07400
C371        C  0.24979627  0.03125813  0.27800600     0.13500
C372        C  0.27380464  0.03963777  0.26419468    -0.20900
C373        C  0.28651691  0.00813470  0.24971975    -0.07400
C374        C  0.27633052  0.96714159  0.24989483     0.13500
C375        C  0.28901522  0.93292506  0.23378887    -0.24200
H376        H  0.24336451  0.92736763  0.26299949     0.14700
H377        H  0.28294155  0.07095067  0.26495587     0.14800
C378        C  0.23628648  0.06586781  0.29298409    -0.24200
H379        H  0.27657730  0.90310740  0.23463246     0.05000
H380        H  0.31543164  0.92904448  0.24597948     0.08200
H381        H  0.28482122  0.94012167  0.20818606     0.08200
H382        H  0.23869356  0.05873620  0.31825454     0.08200
H383        H  0.21029804  0.07047935  0.27935114     0.08200
H384        H  0.24946684  0.09538254  0.29301253     0.05000
C385        C  0.99860354  0.62821026  0.09686001    -0.20800
C386        C  0.47128150  0.62125879  0.10460790    -0.07400
C387        C  0.47334462  0.61932183  0.13733669     0.13500
C388        C  0.00217228  0.61776220  0.16044913    -0.20900
C389        C  0.03175109  0.62133555  0.15324812    -0.07400
C390        C  0.02953544  0.62846567  0.12085440     0.13500
C391        C  0.05950704  0.63501914  0.11100081    -0.24200
H392        H  0.99747488  0.63190820  0.07204839     0.14700
H393        H  0.00300780  0.61397049  0.18519318     0.14800
C394        C  0.44319868  0.61838796  0.14750823    -0.24200
H395        H  0.05328763  0.64020461  0.08483733     0.05000
H396        H  0.07503626  0.60754913  0.11663086     0.08200
H397        H  0.07338945  0.66248454  0.12387186     0.08200
H398        H  0.42903362  0.58947320  0.13907877     0.08200
H399        H  0.42784869  0.64500450  0.13742175     0.08200
H400        H  0.44928608  0.62036521  0.17403724     0.05000
C401        C  0.35254354  0.47246439  0.10358424    -0.20800
C402        C  0.38236696  0.46988780  0.09719805    -0.07400
C403        C  0.40794485  0.44811711  0.11845267     0.13500
C404        C  0.40383614  0.43275172  0.14685042    -0.20900
C405        C  0.37559865  0.44099314  0.15518487    -0.07400
C406        C  0.34936886  0.45993019  0.13273022     0.13500
C407        C  0.31895395  0.47000824  0.14046791    -0.24200
H408        H  0.33241876  0.48809829  0.08693657     0.14700
H409        H  0.42413659  0.41835957  0.16424928     0.14800
C410        C  0.44027235  0.44415748  0.11275922    -0.24200
H411        H  0.30022823  0.48365790  0.11985929     0.05000
H412        H  0.32539910  0.49284237  0.16050298     0.08200
H413        H  0.30840044  0.44175501  0.14732422     0.08200
H414        H  0.45094224  0.47514937  0.11187987     0.08200
H415        H  0.43693876  0.42732357  0.08969187     0.08200
H416        H  0.45782838  0.42707256  0.13217606     0.05000
C417        C  0.41706567  0.54831104  0.40448628    -0.20800
C418        C  0.39046990  0.53860381  0.41548478    -0.07400
C419        C  0.36202488  0.52115910  0.39271605     0.13500
C420        C  0.36180570  0.51128711  0.36127986    -0.20900
C421        C  0.38918578  0.51790272  0.35143336    -0.07400
C422        C  0.41684038  0.53770624  0.37299093     0.13500
C423        C  0.44637898  0.54639852  0.36289923    -0.24200
H424        H  0.43894974  0.56236963  0.42107525     0.14700
H425        H  0.34071761  0.49562821  0.34480083     0.14800
C426        C  0.33192697  0.51135534  0.40127957    -0.24200
H427        H  0.46593198  0.56255427  0.38227118     0.05000
H428        H  0.43957832  0.56614049  0.34153769     0.08200
H429        H  0.45616845  0.51716708  0.35671824     0.08200
H430        H  0.32413148  0.53928034  0.41151443     0.08200
H431        H  0.33725922  0.48615241  0.41861732     0.08200
H432        H  0.31136345  0.50071167  0.38010155     0.05000
C433        C  0.27370343  0.51618021  0.02457968    -0.20800
C434        C  0.28876329  0.51045752  0.00096175    -0.07400
C435        C  0.27647308  0.48850987  0.47747435     0.13500
C436        C  0.24994282  0.46288731  0.47692869    -0.20900
C437        C  0.23529809  0.46567810  0.50093847    -0.07400
C438        C  0.24648297  0.49203985  0.02460815     0.13500
C439        C  0.23150370  0.49948563  0.05089514    -0.24200
H440        H  0.28383725  0.53883305  0.04363783     0.14700
H441        H  0.23895714  0.44272164  0.45627751     0.14800
C442        C  0.28935931  0.48576401  0.44956309    -0.24200
H443        H  0.24607179  0.52210917  0.06923782     0.05000
H444        H  0.23028314  0.47027569  0.06315288     0.08200
H445        H  0.20671202  0.51186820  0.04100198     0.08200
H446        H  0.31440562  0.47389499  0.45758661     0.08200
H447        H  0.28897349  0.51668618  0.43932250     0.08200
H448        H  0.27444436  0.46458736  0.43021311     0.05000
C449        C  0.04513125  0.51569250  0.51594109    -0.20800
C450        C  0.03874492  0.50421138  0.48350529    -0.07400
C451        C  0.00603931  0.49546606  0.96367443     0.13500
C452        C  0.98031418  0.50024094  0.97573600    -0.20900
C453        C  0.48685872  0.51141803  0.00878776    -0.07400
C454        C  0.51987508  0.51764733  0.53022277     0.13500
C455        C  0.52796901  0.52596914  0.56580522    -0.24200
H456        H  0.07002259  0.51915454  0.53171026     0.14700
H457        H  0.95563180  0.49633385  0.95955936     0.14800
C458        C  0.99913459  0.48536425  0.92841822    -0.24200
H459        H  0.55468215  0.52793802  0.57807745     0.05000
H460        H  0.51780193  0.50084767  0.57675159     0.08200
H461        H  0.51765998  0.55547334  0.57021410     0.08200
H462        H  0.97258784  0.48364038  0.91545408     0.08200
H463        H  0.00909842  0.45530742  0.92472139     0.08200
H464        H  0.01022161  0.50949380  0.91741670     0.05000
C465        C  0.21799473  0.88211905  0.39272693    -0.20800
C466        C  0.21776376  0.87596589  0.36100225    -0.07400
C467        C  0.24781917  0.86570096  0.35595525     0.13500
C468        C  0.27713095  0.86680203  0.38203441    -0.20900
C469        C  0.27766417  0.87615575  0.41351367    -0.07400
C470        C  0.24697117  0.88114009  0.41894837     0.13500
C471        C  0.24373744  0.88473142  0.45217351    -0.24200
H472        H  0.19520533  0.88829065  0.39710863     0.14700
H473        H  0.29996493  0.86142528  0.37757090     0.14800
C474        C  0.24989323  0.85427028  0.32322138    -0.24200
H475        H  0.21786815  0.88442133  0.45149521     0.05000
H476        H  0.25469084  0.91393994  0.46428467     0.08200
H477        H  0.25560925  0.85835725  0.46667742     0.08200
H478        H  0.24255946  0.88037414  0.30685147     0.08200
H479        H  0.23399099  0.82699414  0.31327414     0.08200
H480        H  0.27502633  0.84625631  0.32415133     0.05000
C481        C  0.38748901  0.72570798  0.02842264    -0.20800
C482        C  0.37730109  0.69973244  0.00095262    -0.07400
C483        C  0.38256770  0.72032871  0.47450377     0.13500
C484        C  0.38580086  0.76323847  0.47256820    -0.20900
C485        C  0.39017784  0.78925306  0.49941374    -0.07400
C486        C  0.39122514  0.76835737  0.02604639     0.13500
C487        C  0.40140483  0.79496204  0.05616662    -0.24200
H488        H  0.39303737  0.71254012  0.05196927     0.14700
H489        H  0.38326128  0.77680322  0.44953767     0.14800
C490        C  0.37673852  0.69451366  0.44426121    -0.24200
H491        H  0.40613062  0.77642469  0.07809557     0.05000
H492        H  0.37629234  0.81932486  0.55571508     0.08200
H493        H  0.42406126  0.81243915  0.05767359     0.08200
H494        H  0.35418991  0.67551293  0.43981487     0.08200
H495        H  0.37724656  0.67001341  0.93775478     0.08200
H496        H  0.37374677  0.71375327  0.42292631     0.05000
C497        C  0.48866390  0.00356606  0.53012508    -0.20800
C498        C  0.47501552  0.97999215  0.50130021    -0.07400
C499        C  0.99385109  0.97099814  0.97725110     0.13500
C500        C  0.02256885  0.99539157  0.98310206    -0.20900
C501        C  0.03596432  0.01980412  0.01150210    -0.07400
C502        C  0.01907044  0.01973416  0.03430417     0.13500
C503        C  0.03136436  0.04408288  0.06545469    -0.24200
H504        H  0.47634208  0.00360993  0.54807929     0.14700
H505        H  0.03517423  0.99443469  0.96533856     0.14800
C506        C  0.98282361  0.94417119  0.94729282    -0.27400
H507        H  0.51272576  0.04965766  0.58182643     0.05000
H508        H  0.02953552  0.08853175  0.55967438     0.08200
H509        H  0.05584968  0.03361464  0.07963920     0.08200
H510        H  0.95549946  0.96663019  0.43430574     0.08200
H511        H  0.98247636  0.91150143  0.95398692     0.08200
H512        H  0.99934697  0.94721582  0.93254121     0.05000
C513        C  0.23081636  0.00294007  0.97949642    -0.20800
C514        C  0.22706308  0.00482589  0.01018432    -0.07400
C515        C  0.24799220  0.99596799  0.53619240     0.13500
C516        C  0.27903325  0.99420736  0.53317862    -0.20900
C517        C  0.28382225  0.99538765  0.50290448    -0.07400
C518        C  0.26155232  0.00174120  0.97573995     0.13500
C519        C  0.26463420  0.99987050  0.94247626    -0.24200
H520        H  0.20949185  0.00416238  0.95834007     0.14700
H521        H  0.29981682  0.99047030  0.55459962     0.14800
C522        C  0.24393180  0.99496784  0.56904939    -0.24200
H523        H  0.24048046  0.00015114  0.92358868     0.05000
H524        H  0.27700872  0.97142919  0.93892565     0.08200
H525        H  0.27903221  0.02693238  0.93924008     0.08200
H526        H  0.22818607  0.96825299  0.57021568     0.08200
H527        H  0.23259893  0.02363281  0.57401988     0.08200
H528        H  0.26765099  0.99199820  0.58825998     0.05000
C529        C  0.35902656  0.93370093  0.10360457    -0.20800
C530        C  0.38735064  0.93980665  0.09486236    -0.07400
C531        C  0.41466548  0.95963511  0.11657622     0.13500
C532        C  0.41200592  0.97691208  0.14502030    -0.20900
C533        C  0.38265237  0.97469231  0.15246700    -0.07400
C534        C  0.35634097  0.95093844  0.13233046     0.13500
C535        C  0.32480897  0.94640010  0.13973294    -0.24200
H536        H  0.33795789  0.91846843  0.08662560     0.14700
H537        H  0.43247582  0.99454910  0.16057814     0.14800
C538        C  0.44625935  0.96369691  0.10916275    -0.24200
H539        H  0.30645326  0.92785933  0.12088601     0.05000
H540        H  0.31451048  0.97711536  0.14131957     0.08200
H541        H  0.32920449  0.93074998  0.16292563     0.08200
H542        H  0.44278646  0.98193151  0.08727581     0.08200
H543        H  0.45484805  0.93268085  0.10518912     0.08200
H544        H  0.46556344  0.97919949  0.12917794     0.05000
C545        C  0.36861089  0.05630251  0.35707946    -0.20800
C546        C  0.38328526  0.03214915  0.33847678    -0.07400
C547        C  0.39616308  0.99377843  0.35079875     0.13500
C548        C  0.39296789  0.98039855  0.37995983    -0.20900
C549        C  0.37754264  0.00380184  0.39798507    -0.07400
C550        C  0.36584484  0.04276946  0.38668158     0.13500
C551        C  0.34907179  0.06912850  0.40490502    -0.24200
H552        H  0.35845268  0.08553656  0.34802033     0.14700
H553        H  0.40222169  0.95054217  0.38860994     0.14800
C554        C  0.41195002  0.96532168  0.33285162    -0.24200
H555        H  0.34047840  0.09814411  0.39236894     0.05000
H556        H  0.36621017  0.07719110  0.42906363     0.08200
H557        H  0.32764896  0.05220182  0.40753431     0.08200
H558        H  0.43390053  0.98050761  0.32990050     0.08200
H559        H  0.39438596  0.95672939  0.30901028     0.08200
H560        H  0.41991485  0.93642182  0.34584423     0.05000
O561        O  0.33637443  0.87481849  0.93457685    -0.85900
O562        O  0.36397043  0.94625639  0.92416033    -0.82900
C563        C  0.37331100  0.98320201  0.92817147     0.97600
O564        O  0.38481808  0.99854964  0.95634488    -0.83000
O565        O  0.33607474  0.99612993  0.98627393    -0.85600
C566        C  0.31840373  0.98235532  0.00187011     1.02100
O567        O  0.32532382  0.94977947  0.01695374    -0.78400
O568        O  0.30826943  0.90078294  0.96382522    -0.78600
C569        C  0.30901430  0.88437560  0.93799176     1.02100
O570        O  0.39900199  0.85336771  0.98175030    -0.85900
O571        O  0.42742068  0.92951512  0.96957218    -0.82900
C572        C  0.44252349  0.95237350  0.99402817     0.97600
O573        O  0.42790308  0.96394813  0.01312780    -0.83000
O574        O  0.38146469  0.97301393  0.54393600    -0.85600
C575        C  0.38507587  0.94063478  0.56057448     1.02100
O576        O  0.37997286  0.90534898  0.54722088    -0.78400
O577        O  0.35785808  0.84607770  0.49744536    -0.78500
C578        C  0.38036043  0.83022898  0.99126165     1.02000
Cr579      Cr  0.38126517  0.90246178  0.95523132     1.93700
Cr580      Cr  0.38203877  0.97791912  0.99904071     1.93200
Cr581      Cr  0.34393465  0.90058258  0.00413047     1.39100
O582        O  0.36968805  0.92676027  0.98622183    -1.23600
O583        O  0.44202311  0.62660447  0.55347353    -0.85900
O584        O  0.46023687  0.55537456  0.53336508    -0.82900
C585        C  0.46002257  0.52133535  0.51980869     0.97600
O586        O  0.43388570  0.50132636  0.50763897    -0.83000
O587        O  0.40323500  0.48945554  0.55453217    -0.85600
C588        C  0.38731981  0.49887414  0.57334175     1.02100
O589        O  0.37274265  0.53255920  0.57061067    -0.78400
O590        O  0.41982111  0.59371611  0.58407230    -0.78600
C591        C  0.44370934  0.61403326  0.58095490     1.02100
O592        O  0.38850509  0.63176754  0.98808804    -0.85900
O593        O  0.41437735  0.56567578  0.96565004    -0.82900
C594        C  0.39195784  0.54187171  0.94858684     0.97600
O595        O  0.37398343  0.52255530  0.96158900    -0.83000
O596        O  0.34412031  0.50879541  0.50840874    -0.85600
C597        C  0.32324226  0.53482525  0.50926777     1.02100
O598        O  0.33170726  0.57212140  0.51812518    -0.78400
O599        O  0.37752550  0.64293997  0.53351901    -0.78500
C600        C  0.38361029  0.65748021  0.50921984     1.02000
Cr601      Cr  0.42598158  0.59324393  0.51244102     1.93700
Cr602      Cr  0.38978926  0.51091430  0.50977880     1.93200
Cr603      Cr  0.37682886  0.58449094  0.54926517     1.39100
O604        O  0.39676113  0.56304644  0.52321447    -1.23600
O605        O  0.16414494  0.90387775  0.83621838    -0.85900
O606        O  0.11713558  0.96193514  0.82687053    -0.82900
C607        C  0.13242286  0.99588346  0.83222884     0.97600
O608        O  0.14805795  0.00760652  0.81380921    -0.83000
O609        O  0.17726067  0.00095193  0.76487225    -0.85600
C610        C  0.20305449  0.98144563  0.77575466     1.02100
O611        O  0.20282833  0.94738399  0.78805346    -0.78400
O612        O  0.18542470  0.87364357  0.80340986    -0.78600
C613        C  0.18776161  0.88518964  0.83150494     1.02100
O614        O  0.12174327  0.85478652  0.78373445    -0.85900
O615        O  0.07581719  0.92254178  0.77202932    -0.82900
C616        C  0.06740443  0.95993138  0.76681445     0.97600
O617        O  0.08804798  0.98770592  0.76736238    -0.83000
O618        O  0.11800205  0.97468281  0.72046626    -0.85600
C619        C  0.13715860  0.95887744  0.70706472     1.02100
O620        O  0.16025513  0.93675282  0.72295334    -0.78400
O621        O  0.13753442  0.86534777  0.74204501    -0.78500
C622        C  0.12883769  0.84071940  0.75965814     1.02000
Cr623      Cr  0.12085049  0.91182318  0.80243138     1.93700
Cr624      Cr  0.13342325  0.98847883  0.76757217     1.93200
Cr625      Cr  0.16910587  0.90811922  0.76479292     1.39100
O626        O  0.14017247  0.93584267  0.77740262    -1.23600
O627        O  0.06676823  0.59485460  0.70931903    -0.85900
O628        O  0.08273045  0.54502717  0.76095230    -0.82900
C629        C  0.07537693  0.51288961  0.74410985     0.97600
O630        O  0.09347967  0.49960915  0.72872463    -0.83000
O631        O  0.14350006  0.49967735  0.69993818    -0.85600
C632        C  0.13300447  0.51631559  0.67282050     1.02100
O633        O  0.12158368  0.55155211  0.67086530    -0.78400
O634        O  0.09644288  0.62264066  0.68255769    -0.78600
C635        C  0.06853797  0.61188707  0.68432066     1.02100
O636        O  0.11523821  0.65136893  0.74434975    -0.85900
O637        O  0.13551267  0.59466063  0.79369874    -0.82900
C638        C  0.14204938  0.55994292  0.80647366     0.97600
O639        O  0.14087257  0.52770899  0.78917830    -0.83000
O640        O  0.18637342  0.53390014  0.75866280    -0.85600
C641        C  0.20079195  0.54678913  0.73987004     1.02100
O642        O  0.18581226  0.56893846  0.71610050    -0.78400
O643        O  0.15939720  0.64447881  0.73091304    -0.78500
C644        C  0.14086079  0.66653580  0.74125021     1.02000
Cr645      Cr  0.10233224  0.59495068  0.75062514     1.93700
Cr646      Cr  0.13991321  0.51890539  0.74319995     1.93200
Cr647      Cr  0.14043761  0.59528409  0.70272525     1.39100
O648        O  0.12840016  0.57010361  0.73257919    -1.23600
O649        O  0.42405077  0.38097398  0.81558634    -0.85900
O650        O  0.40292320  0.45598548  0.82571119    -0.82900
C651        C  0.39333582  0.49215637  0.82206799     0.97600
O652        O  0.38252447  0.50652600  0.79413557    -0.83000
O653        O  0.43104142  0.49903133  0.76371920    -0.85600
C654        C  0.44812469  0.48256967  0.74847667     1.02100
O655        O  0.43938474  0.44935875  0.73328712    -0.78400
O656        O  0.45384022  0.40290638  0.78681841    -0.78600
C657        C  0.45198704  0.38756213  0.81230522     1.02100
O658        O  0.35993238  0.36149983  0.76998635    -0.85900
O659        O  0.33745829  0.44091933  0.78240075    -0.82900
C660        C  0.32274062  0.46178719  0.75772270     0.97600
O661        O  0.33693249  0.47111385  0.73776691    -0.83000
O662        O  0.38148287  0.46981720  0.70529285    -0.85600
C663        C  0.37881966  0.43614642  0.68932579     1.02100
O664        O  0.38391398  0.40221657  0.70348567    -0.78400
O665        O  0.40248553  0.34844729  0.75494097    -0.78500
C666        C  0.37713916  0.33640866  0.76046976     1.02000
Cr667      Cr  0.38151670  0.41125603  0.79562387     1.93700
Cr668      Cr  0.38396175  0.48292585  0.75127576     1.93200
Cr669      Cr  0.41772694  0.40270693  0.74610969     1.39100
O670        O  0.39358884  0.43195638  0.76399202    -1.23600
O671        O  0.32893069  0.12934590  0.70701703    -0.85900
O672        O  0.30977670  0.05657752  0.72111586    -0.82900
C673        C  0.30798347  0.02225462  0.73237186     0.97600
O674        O  0.33317412  0.00222985  0.74505665    -0.83000
O675        O  0.36442496  0.99376256  0.69824009    -0.85600
C676        C  0.38069600  0.00456162  0.68018395     1.02100
O677        O  0.39668652  0.03791726  0.68572957    -0.78400
O678        O  0.34957966  0.09684953  0.67484076    -0.78600
C679        C  0.32605830  0.11642063  0.67913144     1.02100
O680        O  0.37532518  0.13769542  0.76887048    -0.85900
O681        O  0.35036873  0.06616879  0.78785705    -0.82900
C682        C  0.37290038  0.04355471  0.80437292     0.97600
O683        O  0.39214292  0.02693081  0.79147216    -0.83000
O684        O  0.42389603  0.01269494  0.74640994    -0.85600
C685        C  0.44507992  0.03991554  0.74729347     1.02100
O686        O  0.43726258  0.07724488  0.74081672    -0.78400
O687        O  0.39277397  0.14546011  0.72772616    -0.78500
C688        C  0.38523369  0.16093321  0.75106247     1.02000
Cr689      Cr  0.34354744  0.09487223  0.74579779     1.93700
Cr690      Cr  0.37797704  0.01316387  0.74437181     1.93200
Cr691      Cr  0.39281251  0.08845758  0.70946723     1.39100
O692        O  0.37261706  0.06587968  0.73431834    -1.23600
O693        O  0.20212812  0.10083528  0.54764150    -0.85900
O694        O  0.18455406  0.05132648  0.49493961    -0.82900
C695        C  0.19177966  0.01880507  0.51007526     0.97600
O696        O  0.17434803  0.00495630  0.52594760    -0.83000
O697        O  0.12568076  0.00305591  0.55621619    -0.85600
C698        C  0.13784236  0.01852372  0.58420731     1.02100
O699        O  0.14787787  0.05508138  0.58802825    -0.78400
O700        O  0.17494968  0.12636539  0.57785316    -0.78600
C701        C  0.20212862  0.11672484  0.57389289     1.02100
O702        O  0.15191700  0.15376016  0.01491809    -0.85900
O703        O  0.13135619  0.09466287  0.96497088    -0.82900
C704        C  0.12644259  0.05928456  0.95173886     0.97600
O705        O  0.12970665  0.02707586  0.96849084    -0.83000
O706        O  0.08254523  0.03737727  0.49968049    -0.85600
C707        C  0.06815260  0.04810311  0.51917696     1.02100
O708        O  0.08345194  0.07085298  0.54373384    -0.78400
O709        O  0.11106102  0.14747046  0.53126220    -0.78500
C710        C  0.12887259  0.17035626  0.52053973     1.02000
Cr711      Cr  0.16583192  0.10046746  0.50766293     1.93700
Cr712      Cr  0.12832342  0.02310773  0.51353685     1.93200
Cr713      Cr  0.12968810  0.09856471  0.55750538     1.39100
O714        O  0.14068585  0.07431786  0.52612923    -1.23600
O715        O  0.09828123  0.39923288  0.91534888    -0.85900
O716        O  0.14981970  0.45492825  0.92698728    -0.82900
C717        C  0.13790730  0.49038435  0.92313592     0.97600
O718        O  0.12263304  0.50360104  0.94150005    -0.83000
O719        O  0.09279581  0.50167065  0.98958940    -0.85600
C720        C  0.06530211  0.48496747  0.97727460     1.02100
O721        O  0.06252973  0.44972889  0.96494395    -0.78400
O722        O  0.07416843  0.37341092  0.94738647    -0.78600
C723        C  0.07321321  0.38269487  0.91944777     1.02100
O724        O  0.13664918  0.34969128  0.96729120    -0.85900
O725        O  0.18714213  0.41335997  0.98207431    -0.82900
C726        C  0.19874076  0.44958886  0.99064121     0.97600
O727        O  0.18028933  0.47961930  0.98757680    -0.83000
O728        O  0.14912804  0.47462093  0.53300192    -0.85600
C729        C  0.12902174  0.46029818  0.54587839     1.02100
O730        O  0.10365201  0.44130796  0.52878821    -0.78400
O731        O  0.12242881  0.36818163  0.50881866    -0.78500
C732        C  0.12907627  0.33766394  0.99141859     1.02000
Cr733      Cr  0.14186300  0.40568926  0.94997731     1.93700
Cr734      Cr  0.13523443  0.48457524  0.98674244     1.93200
Cr735      Cr  0.09291106  0.40819969  0.98699003     1.39100
O736        O  0.12395586  0.43251974  0.97511236    -1.23600
C737        C  0.11786599  0.22103983  0.97915836    -0.20800
C738        C  0.12208130  0.21387784  0.51272232    -0.07400
C739        C  0.12564216  0.24453287  0.53674979     0.13500
C740        C  0.12910778  0.28599913  0.52949348    -0.20900
C741        C  0.12947804  0.29760638  0.49878291    -0.07400
C742        C  0.12185130  0.26237638  0.97249135     0.13500
C743        C  0.12163459  0.27243765  0.93900287    -0.24200
H744        H  0.11669227  0.19751889  0.96094721     0.14700
H745        H  0.13214483  0.30940420  0.54815268     0.14800
C746        C  0.12717081  0.23333024  0.57030294    -0.24200
H747        H  0.11723411  0.24468041  0.92299955     0.05000
H748        H  0.14556403  0.28586255  0.93974067     0.08200
H749        H  0.10189337  0.29421304  0.92809778     0.08200
H750        H  0.14815170  0.21310992  0.58074579     0.08200
H751        H  0.10432864  0.21692122  0.56968696     0.08200
H752        H  0.13009220  0.26095961  0.58626222     0.05000
C753        C  0.29415823  0.11575070  0.62056546    -0.20800
C754        C  0.29466796  0.12263530  0.65229976    -0.07400
C755        C  0.26461341  0.13228054  0.65760122     0.13500
C756        C  0.23526567  0.13156731  0.63158517    -0.20900
C757        C  0.23455716  0.12248147  0.60000200    -0.07400
C758        C  0.26505148  0.11623341  0.59448346     0.13500
C759        C  0.26792003  0.11039140  0.56127592    -0.24200
H760        H  0.31684559  0.10938365  0.61607341     0.14700
H761        H  0.21251066  0.13709130  0.63616541     0.14800
C762        C  0.26253638  0.14253384  0.69054317    -0.24200
H763        H  0.29369539  0.10929411  0.56173441     0.05000
H764        H  0.25653567  0.13642825  0.54605346     0.08200
H765        H  0.25623355  0.08099544  0.55015795     0.08200
H766        H  0.27790023  0.17013584  0.70077832     0.08200
H767        H  0.27047173  0.11620354  0.70655717     0.08200
H768        H  0.23728302  0.14947047  0.68987273     0.05000
C769        C  0.48170287  0.37347273  0.87006410    -0.20800
C770        C  0.48289365  0.37867889  0.83877086    -0.07400
C771        C  0.01469448  0.37665401  0.83383222     0.13500
C772        C  0.04327240  0.37670602  0.86049508    -0.20900
C773        C  0.04217913  0.37574020  0.89205567    -0.07400
C774        C  0.01105954  0.37108370  0.89653273     0.13500
C775        C  0.50637406  0.36294218  0.92902607    -0.24200
H776        H  0.45824385  0.37246627  0.87397044     0.14700
H777        H  0.06677290  0.37784246  0.85659090     0.14800
C778        C  0.01828120  0.37308369  0.80079255    -0.24200
H779        H  0.48038695  0.35927011  0.92753077     0.05000
H780        H  0.01754063  0.38950984  0.94591132     0.08200
H781        H  0.01940321  0.33471311  0.93875011     0.08200
H782        H  0.01097094  0.40167329  0.78744282     0.08200
H783        H  0.00316073  0.34681900  0.78727329     0.08200
H784        H  0.04388197  0.36753360  0.80193978     0.05000
C785        C  0.37764605  0.22447217  0.78101439    -0.20800
C786        C  0.38183275  0.20644397  0.75315525    -0.07400
C787        C  0.37822532  0.23168813  0.72607260     0.13500
C788        C  0.37258120  0.27361436  0.72844118    -0.20900
C789        C  0.37047630  0.29181632  0.75675422    -0.07400
C790        C  0.37226392  0.26691407  0.78318718     0.13500
C791        C  0.36988004  0.28537242  0.81403042    -0.24200
H792        H  0.37917000  0.20544497  0.80142956     0.14700
H793        H  0.37156992  0.29313262  0.70840478     0.14800
C794        C  0.37998677  0.21561583  0.69415431    -0.24200
H795        H  0.37170151  0.26166414  0.83234834     0.05000
H796        H  0.34609943  0.30061918  0.80935998     0.08200
H797        H  0.38986208  0.30835917  0.82404993     0.08200
H798        H  0.36071102  0.19184786  0.68405070     0.08200
H799        H  0.40439778  0.20293150  0.69709326     0.08200
H800        H  0.37609423  0.24009074  0.67610896     0.05000
C801        C  0.23674807  0.50251807  0.71951290    -0.20800
C802        C  0.23363675  0.52963264  0.74363075    -0.07400
C803        C  0.25936826  0.53228937  0.77311747     0.13500
C804        C  0.28737130  0.50827580  0.77758592    -0.20900
C805        C  0.29035501  0.48079732  0.75359792    -0.07400
C806        C  0.26461108  0.47824818  0.72409382     0.13500
C807        C  0.26593906  0.44887267  0.69768112    -0.24200
H808        H  0.21665443  0.49896756  0.69744469     0.14700
H809        H  0.30741432  0.51201651  0.79949712     0.14800
C810        C  0.25771505  0.56125122  0.79969384    -0.24200
H811        H  0.24333880  0.44938237  0.67678193     0.05000
H812        H  0.26908790  0.41710970  0.70678687     0.08200
H813        H  0.28657878  0.45729841  0.68914298     0.08200
H814        H  0.23705357  0.55241026  0.80821060     0.08200
H815        H  0.25437148  0.59308988  0.79074399     0.08200
H816        H  0.28033401  0.56083955  0.82058271     0.05000
C817        C  0.00872030  0.48529648  0.77496173    -0.20800
C818        C  0.47940189  0.49846389  0.74841347    -0.07400
C819        C  0.48353686  0.50952159  0.71897591     0.13500
C820        C  0.01796537  0.50650868  0.71698135    -0.20900
C821        C  0.04444261  0.49463718  0.74275546    -0.07400
C822        C  0.03980432  0.48335597  0.77194616     0.13500
C823        C  0.06786844  0.46988371  0.80004616    -0.24200
H824        H  0.00465733  0.47518097  0.79681566     0.14700
H825        H  0.02204625  0.51741054  0.69533212     0.14800
C826        C  0.45520678  0.52294408  0.69123836    -0.24200
H827        H  0.05971818  0.46088728  0.82061636     0.05000
H828        H  0.08620206  0.49514520  0.80852694     0.08200
H829        H  0.07951563  0.44296359  0.79266178     0.08200
H830        H  0.44414462  0.55035851  0.69865253     0.08200
H831        H  0.43654276  0.49803980  0.68366082     0.08200
H832        H  0.46285339  0.53084188  0.67014265     0.05000
C833        C  0.12084368  0.54618058  0.88277720    -0.20800
C834        C  0.14320747  0.51585994  0.89723104    -0.07400
C835        C  0.17002595  0.50914409  0.88568198     0.13500
C836        C  0.17079956  0.52773787  0.85744604    -0.20900
C837        C  0.14642486  0.55421958  0.84092642    -0.07400
C838        C  0.12235042  0.56580600  0.85487293     0.13500
C839        C  0.09715530  0.59698798  0.83947220    -0.24200
H840        H  0.10118017  0.55297116  0.89224852     0.14700
H841        H  0.18974110  0.51978331  0.84714002     0.14800
C842        C  0.19837065  0.48293258  0.90293309    -0.24200
H843        H  0.08034352  0.60253493  0.85362471     0.05000
H844        H  0.08238723  0.58610401  0.81505818     0.08200
H845        H  0.10941727  0.62666119  0.83785558     0.08200
H846        H  0.19095660  0.45004244  0.90129410     0.08200
H847        H  0.20801897  0.49358487  0.92835532     0.08200
H848        H  0.21858330  0.48542300  0.89250139     0.05000
C849        C  0.12141945  0.45966222  0.63086800    -0.20800
C850        C  0.13644662  0.49756121  0.64302114    -0.07400
C851        C  0.15203046  0.52019951  0.62454888     0.13500
C852        C  0.15047635  0.50581969  0.59386912    -0.20900
C853        C  0.13344184  0.46958700  0.58046060    -0.07400
C854        C  0.11949449  0.44541463  0.59968239     0.13500
C855        C  0.10269800  0.40466792  0.58771098    -0.24200
H856        H  0.10977104  0.44212136  0.64517928     0.14700
H857        H  0.16157649  0.52427315  0.57960800     0.14800
C858        C  0.17055747  0.55987827  0.63696274    -0.24200
H859        H  0.09556851  0.38876342  0.60672298     0.05000
H860        H  0.11932468  0.38433032  0.57992639     0.08200
H861        H  0.08015460  0.40921384  0.56737990     0.08200
H862        H  0.19018221  0.55440523  0.65970638     0.08200
H863        H  0.15405648  0.58373072  0.64081860     0.08200
H864        H  0.18220523  0.57241090  0.61979484     0.05000
C865        C  0.14471665  0.78138297  0.73078127    -0.20800
C866        C  0.13296663  0.79550345  0.75567360    -0.07400
C867        C  0.12965635  0.76666973  0.77843184     0.13500
C868        C  0.13683467  0.72542922  0.77487858    -0.20900
C869        C  0.14611789  0.71104442  0.74881914    -0.07400
C870        C  0.15095759  0.73951797  0.72688664     0.13500
C871        C  0.16111718  0.72565710  0.69861441    -0.24200
H872        H  0.14856061  0.80306145  0.71383370     0.14700
H873        H  0.13318152  0.70334829  0.79172588     0.14800
C874        C  0.11795414  0.77807826  0.80636805    -0.24200
H875        H  0.16374112  0.75190013  0.68375551     0.05000
H876        H  0.14257412  0.70385627  0.68311547     0.08200
H877        H  0.18493707  0.71024910  0.70722835     0.08200
H878        H  0.09354087  0.79195320  0.79743211     0.08200
H879        H  0.13558161  0.79975888  0.82308197     0.08200
H880        H  0.11559558  0.75092483  0.82048671     0.05000
C881        C  0.10121712  0.01331084  0.86881034    -0.20800
C882        C  0.12919184  0.02105262  0.85967057    -0.07400
C883        C  0.15353932  0.04838407  0.87882169     0.13500
C884        C  0.15018514  0.06470173  0.90760025    -0.20900
C885        C  0.12330883  0.05385218  0.91757860    -0.07400
C886        C  0.09802896  0.02921594  0.89736049     0.13500
C887        C  0.06810975  0.01849911  0.90642549    -0.24200
H888        H  0.08229506  0.99242686  0.85450837     0.14700
H889        H  0.16978575  0.08312770  0.92357462     0.14800
C890        C  0.18398645  0.05798038  0.87047167    -0.24200
H891        H  0.05011090  0.99996991  0.88724887     0.05000
H892        H  0.05616608  0.04711842  0.91048307     0.08200
H893        H  0.07480745  0.00036730  0.92862704     0.08200
H894        H  0.17755254  0.07330996  0.84697188     0.08200
H895        H  0.19701678  0.02917956  0.86915729     0.08200
H896        H  0.20088204  0.07880552  0.88871247     0.05000
C897        C  0.10826840  0.98604193  0.61792061    -0.20800
C898        C  0.13814527  0.99579295  0.61321480    -0.07400
C899        C  0.16728727  0.99093585  0.63874677     0.13500
C900        C  0.16584192  0.97671566  0.66826544    -0.20900
C901        C  0.13592134  0.96963913  0.67383664    -0.07400
C902        C  0.10670011  0.97427843  0.64819329     0.13500
C903        C  0.07392630  0.96730873  0.65259401    -0.24200
H904        H  0.08597320  0.98999849  0.59835123     0.14700
H905        H  0.18835693  0.97328250  0.68774904     0.14800
C906        C  0.19997898  0.00141521  0.63512355    -0.24200
H907        H  0.05375031  0.97102034  0.62980334     0.05000
H908        H  0.07045087  0.98995283  0.67037155     0.08200
H909        H  0.07220668  0.93571898  0.66109397     0.08200
H910        H  0.20162506  0.03464300  0.63052774     0.08200
H911        H  0.20326991  0.98321348  0.61479978     0.08200
H912        H  0.22033371  0.99452145  0.65710737     0.05000
C913        C  0.48043350  0.99374439  0.72915607    -0.20800
C914        C  0.47791141  0.02366880  0.75189524    -0.07400
C915        C  0.00422799  0.03061382  0.78006086     0.13500
C916        C  0.03243753  0.00718737  0.78507492    -0.20900
C917        C  0.03452346  0.97538490  0.76345745    -0.07400
C918        C  0.00781865  0.96751877  0.73585870     0.13500
C919        C  0.00924811  0.93532280  0.71132641    -0.24200
H920        H  0.46024378  0.98850885  0.70778783     0.14700
H921        H  0.05335400  0.01455480  0.80550264     0.14800
C922        C  0.50040118  0.05638738  0.80750678    -0.24200
H923        H  0.98624088  0.93333688  0.69090523     0.05000
H924        H  0.01355696  0.90483946  0.72267975     0.08200
H925        H  0.02938930  0.94292219  0.70164759     0.08200
H926        H  0.47885056  0.04740428  0.81458700     0.08200
H927        H  0.49756796  0.08836787  0.79885636     0.08200
H928        H  0.02498857  0.06291988  0.82601425     0.05000
C929        C  0.24272373  0.96187115  0.75014866    -0.20800
C930        C  0.23072077  0.99261792  0.76606137    -0.07400
C931        C  0.24186728  0.03344667  0.76767792     0.13500
C932        C  0.26580613  0.04251979  0.75395212    -0.20900
C933        C  0.27850161  0.01160337  0.73891824    -0.07400
C934        C  0.26662621  0.97104081  0.73628305     0.13500
C935        C  0.27844432  0.93806246  0.71831637    -0.24200
H936        H  0.23271431  0.93084294  0.74781226     0.14700
H937        H  0.27586150  0.07357000  0.75644794     0.14800
C938        C  0.22962372  0.06691597  0.78484221    -0.24200
H939        H  0.26501428  0.90849515  0.71728581     0.05000
H940        H  0.30467032  0.93251620  0.73027529     0.08200
H941        H  0.27473340  0.94772051  0.69330014     0.08200
H942        H  0.23335941  0.05819610  0.81006697     0.08200
H943        H  0.20336193  0.07186605  0.77258573     0.08200
H944        H  0.24268925  0.09661475  0.78523972     0.05000
C945        C  0.00434051  0.62494427  0.60108382    -0.20800
C946        C  0.47498462  0.62051036  0.60829761    -0.07400
C947        C  0.47691620  0.61988394  0.64107188     0.13500
C948        C  0.00754759  0.61653932  0.66483280    -0.20900
C949        C  0.03709806  0.61873913  0.65759225    -0.07400
C950        C  0.03516440  0.62402565  0.62503673     0.13500
C951        C  0.06526723  0.62673132  0.61487920    -0.24200
H952        H  0.00332613  0.62790495  0.57623360     0.14700
H953        H  0.00837482  0.61353633  0.68963120     0.14800
C954        C  0.44675629  0.62050719  0.65120824    -0.24200
H955        H  0.05918774  0.62985613  0.58849676     0.05000
H956        H  0.07960561  0.59841554  0.62160401     0.08200
H957        H  0.08031076  0.65399545  0.62655788     0.08200
H958        H  0.43203512  0.59193677  0.64295630     0.08200
H959        H  0.43199035  0.64749576  0.64090322     0.08200
H960        H  0.45283730  0.62280423  0.67773245     0.05000
C961        C  0.35330415  0.47274741  0.60467230    -0.20800
C962        C  0.38320544  0.47108250  0.59830893    -0.07400
C963        C  0.40878476  0.44854814  0.61883399     0.13500
C964        C  0.40470387  0.43163344  0.64670045    -0.20900
C965        C  0.37633513  0.43853146  0.65507975    -0.07400
C966        C  0.34987246  0.45773573  0.63312925     0.13500
C967        C  0.31856693  0.46422447  0.64044721    -0.24200
H968        H  0.33318877  0.48882966  0.58843577     0.14700
H969        H  0.42513463  0.41703095  0.66380259     0.14800
C970        C  0.44117390  0.44547112  0.61309712    -0.24200
H971        H  0.30002190  0.47903412  0.62035884     0.05000
H972        H  0.32315136  0.48437560  0.66213530     0.08200
H973        H  0.30844262  0.43412957  0.64464552     0.08200
H974        H  0.45178276  0.47669994  0.61302217     0.08200
H975        H  0.43794198  0.42964720  0.58965375     0.08200
H976        H  0.45876528  0.42779737  0.63206756     0.05000
C977        C  0.41537304  0.54740648  0.90311741    -0.20800
C978        C  0.38912358  0.53486087  0.91375679    -0.07400
C979        C  0.36226644  0.51402350  0.89129874     0.13500
C980        C  0.36349953  0.50375499  0.86047101    -0.20900
C981        C  0.39043405  0.51416624  0.85080151    -0.07400
C982        C  0.41640143  0.53699862  0.87209940     0.13500
C983        C  0.44564903  0.54892723  0.86244738    -0.24200
H984        H  0.43606707  0.56376753  0.91961128     0.14700
H985        H  0.34412220  0.48497944  0.84447313     0.14800
C986        C  0.33234739  0.50152034  0.89944115    -0.24200
H987        H  0.46399726  0.56665899  0.88187691     0.05000
H988        H  0.43791621  0.56823024  0.84085877     0.08200
H989        H  0.45740143  0.52095532  0.85681274     0.08200
H990        H  0.32221774  0.52890012  0.90803570     0.08200
H991        H  0.33864873  0.47774956  0.91802295     0.08200
H992        H  0.31303248  0.48815246  0.87831936     0.05000
C993        C  0.27639130  0.51818295  0.52846361    -0.20800
C994        C  0.28992612  0.51706238  0.50336084    -0.07400
C995        C  0.27689742  0.47804894  0.97769844     0.13500
C996        C  0.24993914  0.45368223  0.97798604    -0.20900
C997        C  0.23368836  0.46122895  0.00027920    -0.07400
C998        C  0.24920130  0.49313213  0.52747719     0.13500
C999        C  0.23545588  0.49576463  0.55500361    -0.24200
H1000       H  0.28769485  0.53778208  0.54933546     0.14700
H1001       H  0.23980203  0.43094353  0.95897380     0.14800
C1002       C  0.29142189  0.47014069  0.95125570    -0.24200
H1003       H  0.25028765  0.51672146  0.57456561     0.05000
H1004       H  0.23512606  0.46482959  0.56513250     0.08200
H1005       H  0.21037423  0.50764048  0.54679980     0.08200
H1006       H  0.31659871  0.45893175  0.96111298     0.08200
H1007       H  0.29117976  0.49897487  0.93819257     0.08200
H1008       H  0.27733009  0.44642237  0.93363884     0.05000
C1009       C  0.04338357  0.51348715  0.01703662    -0.20800
C1010       C  0.03781758  0.50132531  0.98483760    -0.07400
C1011       C  0.00672023  0.49820222  0.46301963     0.13500
C1012       C  0.98157490  0.50205412  0.47602893    -0.20900
C1013       C  0.48778352  0.51080912  0.51003634    -0.07400
C1014       C  0.51861313  0.51790579  0.02979752     0.13500
C1015       C  0.52543221  0.52772763  0.06503112    -0.24200
H1016       H  0.06805446  0.51665103  0.03334309     0.14700
H1017       H  0.95671833  0.49824247  0.46038117     0.14800
C1018       C  0.99896756  0.48871453  0.42758958    -0.24200
H1019       H  0.55197049  0.52927231  0.07819780     0.05000
H1020       H  0.51424578  0.50360531  0.07596984     0.08200
H1021       H  0.51527325  0.55786650  0.06822921     0.08200
H1022       H  0.97231090  0.48668503  0.41523459     0.08200
H1023       H  0.00910912  0.45892844  0.42342808     0.08200
H1024       H  0.00937411  0.51332829  0.41639564     0.05000
C1025       C  0.21789501  0.88181785  0.89003111    -0.20800
C1026       C  0.21860440  0.87831425  0.85841169    -0.07400
C1027       C  0.24920697  0.87158365  0.85348399     0.13500
C1028       C  0.27792502  0.87184967  0.87998844    -0.20900
C1029       C  0.27737289  0.87797915  0.91149089    -0.07400
C1030       C  0.24647952  0.88116677  0.91653775     0.13500
C1031       C  0.24276979  0.88356149  0.94960354    -0.24200
H1032       H  0.19469187  0.88585743  0.89409990     0.14700
H1033       H  0.30118021  0.86873694  0.87588918     0.14800
C1034       C  0.25255631  0.86527973  0.82054379    -0.24200
H1035       H  0.21681929  0.88190778  0.94859147     0.05000
H1036       H  0.25285989  0.91307009  0.96192838     0.08200
H1037       H  0.25525314  0.85742538  0.96400889     0.08200
H1038       H  0.24432569  0.89272689  0.80590987     0.08200
H1039       H  0.23815565  0.83773667  0.80849762     0.08200
H1040       H  0.27820976  0.86025924  0.82164451     0.05000
C1041       C  0.38891030  0.72912985  0.53129479    -0.20800
C1042       C  0.38369137  0.70279893  0.50428397    -0.07400
C1043       C  0.37093882  0.71729581  0.97031278     0.13500
C1044       C  0.37502200  0.75998742  0.96806701    -0.20900
C1045       C  0.38521256  0.78569055  0.99551988    -0.07400
C1046       C  0.39200523  0.77192089  0.52918898     0.13500
C1047       C  0.39718767  0.79867631  0.55886565    -0.24200
H1048       H  0.39088153  0.71619625  0.55436510     0.14700
H1049       H  0.36878408  0.77371370  0.94460998     0.14800
C1050       C  0.35840907  0.69165053  0.93981746    -0.24200
H1051       H  0.39950138  0.78013944  0.58042726     0.05000
H1052       H  0.38188890  0.81681829  0.05591114     0.08200
H1053       H  0.41986596  0.81745238  0.56341247     0.08200
H1054       H  0.33614493  0.67423144  0.93970142     0.08200
H1055       H  0.39778745  0.67446071  0.44636474     0.08200
H1056       H  0.35202666  0.71095406  0.91819255     0.05000
C1057       C  0.49109659  0.99194136  0.02964692    -0.20800
C1058       C  0.47641105  0.97042996  0.00011467    -0.07400
C1059       C  0.99236149  0.98008544  0.47926612     0.13500
C1060       C  0.02108071  0.00433912  0.48509251    -0.20900
C1061       C  0.03453239  0.02889865  0.51339116    -0.07400
C1062       C  0.01745733  0.02926682  0.53606465     0.13500
C1063       C  0.02873476  0.05582534  0.56615496    -0.24200
H1064       H  0.47955886  0.99073842  0.04820410     0.14700
H1065       H  0.03332812  0.00360722  0.46707471     0.14800
C1066       C  0.97995513  0.95582948  0.44815428    -0.27400
H1067       H  0.51925010  0.03016851  0.08436857     0.05000
H1068       H  0.03258879  0.07725571  0.06045624     0.08200
H1069       H  0.05324081  0.04672454  0.58131006     0.08200
H1070       H  0.95818210  0.95256022  0.93212597     0.08200
H1071       H  0.97870196  0.92264320  0.45307851     0.08200
H1072       H  0.99598597  0.95960471  0.43297810     0.05000
C1073       C  0.22598263  0.00024780  0.47795484    -0.20800
C1074       C  0.22132359  0.99996903  0.50828590    -0.07400
C1075       C  0.25450271  0.00550860  0.03781984     0.13500
C1076       C  0.28526363  0.00410363  0.03404755    -0.20900
C1077       C  0.28893646  0.00140759  0.00336199    -0.07400
C1078       C  0.25705716  0.99853002  0.47493280     0.13500
C1079       C  0.26104101  0.99916233  0.44203820    -0.24200
H1080       H  0.20521167  0.00426729  0.45663919     0.14700
H1081       H  0.30661422  0.00254738  0.05517811     0.14800
C1082       C  0.25146177  0.00819704  0.07106673    -0.24200
H1083       H  0.23721531  0.00102257  0.42281477     0.05000
H1084       H  0.27302563  0.97083470  0.43751721     0.08200
H1085       H  0.27617561  0.02628885  0.44036617     0.08200
H1086       H  0.23758275  0.98099274  0.07497065     0.08200
H1087       H  0.23856146  0.03642703  0.07399282     0.08200
H1088       H  0.27565554  0.00904653  0.08990940     0.05000
C1089       C  0.36129726  0.93627576  0.60457448    -0.20800
C1090       C  0.38853291  0.94567137  0.59478191    -0.07400
C1091       C  0.41456488  0.96895421  0.61522658     0.13500
C1092       C  0.41177125  0.98528093  0.64383326    -0.20900
C1093       C  0.38347734  0.97903320  0.65277504    -0.07400
C1094       C  0.35830306  0.95298826  0.63334275     0.13500
C1095       C  0.32733084  0.94547566  0.64127696    -0.24200
H1096       H  0.34112814  0.91885381  0.58837362     0.14700
H1097       H  0.43109798  0.00533373  0.65812856     0.14800
C1098       C  0.44483945  0.97790602  0.60628868    -0.24200
H1099       H  0.30980855  0.92555257  0.62279320     0.05000
H1100       H  0.31538636  0.97513511  0.64259860     0.08200
H1101       H  0.33286898  0.93001162  0.66466168     0.08200
H1102       H  0.43874379  0.99602628  0.58409052     0.08200
H1103       H  0.45588922  0.94856914  0.60221820     0.08200
H1104       H  0.46333100  0.99573441  0.62552047     0.05000
C1105       C  0.34437561  0.02699040  0.84416314    -0.20800
C1106       C  0.37407695  0.03357480  0.83797790    -0.07400
C1107       C  0.40344700  0.02928892  0.86361336     0.13500
C1108       C  0.40229921  0.01691522  0.89395635    -0.20900
C1109       C  0.37270674  0.00683998  0.89913791    -0.07400
C1110       C  0.34336853  0.01318748  0.87411756     0.13500
C1111       C  0.31091150  0.00573492  0.87913237    -0.24200
H1112       H  0.32170995  0.03092606  0.82498262     0.14700
H1113       H  0.42475911  0.01337387  0.91336810     0.14800
C1114       C  0.43604011  0.03780556  0.85923572    -0.24200
H1115       H  0.29033151  0.01332648  0.85755064     0.05000
H1116       H  0.30933112  0.02535558  0.89950375     0.08200
H1117       H  0.30808537  0.97299135  0.88452590     0.08200
H1118       H  0.43689086  0.06954478  0.85067477     0.08200
H1119       H  0.44015071  0.01552791  0.84155607     0.08200
H1120       H  0.45632152  0.03484977  0.88205652     0.05000
O1121       O  0.83800855  0.87518375  0.43774439    -0.85900
O1122       O  0.86600203  0.94547946  0.42588001    -0.82900
C1123       C  0.87364047  0.98294372  0.42852019     0.97600
O1124       O  0.88063471  0.00125978  0.45568872    -0.83000
O1125       O  0.83202140  0.99472338  0.48644029    -0.85600
C1126       C  0.81589867  0.98038070  0.50340304     1.02100
O1127       O  0.82566335  0.94959348  0.51998233    -0.78400
O1128       O  0.80980927  0.89903040  0.46776003    -0.78600
C1129       C  0.81040830  0.88325898  0.44166250     1.02100
O1130       O  0.90208314  0.85637385  0.48641310    -0.85900
O1131       O  0.92873949  0.93342799  0.47346574    -0.82900
C1132       C  0.94204756  0.96004572  0.49607039     0.97600
O1133       O  0.92610158  0.97369156  0.51334844    -0.83000
O1134       O  0.88481695  0.96866586  0.04551261    -0.85600
C1135       C  0.88558503  0.93602214  0.06127239     1.02100
O1136       O  0.87863990  0.90148958  0.04690551    -0.78400
O1137       O  0.85507419  0.84476344  0.99576408    -0.78500
C1138       C  0.88416462  0.83263299  0.49627526     1.02000
Cr1139     Cr  0.88312096  0.90409328  0.45860603     1.93700
Cr1140     Cr  0.87925318  0.98165819  0.49918317     1.93200
Cr1141     Cr  0.84603147  0.90173206  0.50753550     1.39100
O1142       O  0.87017705  0.92908520  0.48841338    -1.23600
O1143       O  0.93585735  0.62638538  0.04903060    -0.85900
O1144       O  0.95664059  0.55692179  0.02884260    -0.82900
C1145       C  0.95742632  0.52223388  0.01654621     0.97600
O1146       O  0.93200031  0.50071610  0.00493744    -0.83000
O1147       O  0.90111731  0.48711120  0.05147063    -0.85600
C1148       C  0.88490566  0.49599159  0.07015677     1.02100
O1149       O  0.86908294  0.52870766  0.06660494    -0.78400
O1150       O  0.91484424  0.59168175  0.07967419    -0.78600
C1151       C  0.93813152  0.61331251  0.07651091     1.02100
O1152       O  0.89271826  0.63338048  0.49168043    -0.85900
O1153       O  0.91693172  0.56705567  0.46764287    -0.82900
C1154       C  0.89349725  0.54481232  0.45014690     0.97600
O1155       O  0.87490982  0.52650643  0.46302282    -0.83000
O1156       O  0.84180496  0.50368452  0.00419328    -0.85600
C1157       C  0.82014616  0.52865182  0.00476639     1.02100
O1158       O  0.82743263  0.56624247  0.01357582    -0.78400
O1159       O  0.87090935  0.63923846  0.02933122    -0.78500
C1160       C  0.87611998  0.65432011  0.00484370     1.02000
Cr1161     Cr  0.92070623  0.59267899  0.00812685     1.93700
Cr1162     Cr  0.88750679  0.50797076  0.00627178     1.93200
Cr1163     Cr  0.87199037  0.58066729  0.04496634     1.39100
O1164       O  0.89268422  0.56047979  0.01915381    -1.23600
O1165       O  0.66357387  0.90245108  0.33999589    -0.85900
O1166       O  0.61822303  0.96382204  0.32978234    -0.82900
C1167       C  0.63394290  0.99752013  0.33608714     0.97600
O1168       O  0.65185567  0.00825939  0.31957401    -0.83000
O1169       O  0.68470219  0.00055643  0.27384104    -0.85600
C1170       C  0.70953433  0.97984128  0.28637508     1.02100
O1171       O  0.70702220  0.94529456  0.29710633    -0.78400
O1172       O  0.68513434  0.87177923  0.30775959    -0.78600
C1173       C  0.68716349  0.88284395  0.33587285     1.02100
O1174       O  0.62109375  0.85744080  0.28406346    -0.85900
O1175       O  0.57804324  0.92843768  0.27230762    -0.82900
C1176       C  0.57143449  0.96643559  0.26712568     0.97600
O1177       O  0.59370789  0.99274804  0.27020389    -0.83000
O1178       O  0.62574747  0.97844976  0.22597004    -0.85600
C1179       C  0.64497465  0.96168507  0.21318406     1.02100
O1180       O  0.66780495  0.93966125  0.22976741    -0.78400
O1181       O  0.64033367  0.86886728  0.24457229    -0.78500
C1182       C  0.62920792  0.84404779  0.26031402     1.02000
Cr1183     Cr  0.62155559  0.91396041  0.30454550     1.93700
Cr1184     Cr  0.63947296  0.99073868  0.27323439     1.93200
Cr1185     Cr  0.67277453  0.90888608  0.27040566     1.39100
O1186       O  0.64364496  0.93762813  0.28189794    -1.23600
O1187       O  0.56302175  0.59986966  0.20591097    -0.85900
O1188       O  0.57714420  0.55036893  0.25727555    -0.82900
C1189       C  0.56894986  0.51847708  0.24024652     0.97600
O1190       O  0.58669058  0.50443634  0.22474817    -0.83000
O1191       O  0.63810140  0.50169038  0.19746233    -0.85600
C1192       C  0.62959085  0.51868439  0.17042741     1.02100
O1193       O  0.61888759  0.55425585  0.16815506    -0.78400
O1194       O  0.59340871  0.62532688  0.17884164    -0.78600
C1195       C  0.56521776  0.61576589  0.18068225     1.02100
O1196       O  0.61172543  0.65557171  0.24116249    -0.85900
O1197       O  0.63092573  0.59829249  0.29059782    -0.82900
C1198       C  0.63676273  0.56344000  0.30335970     0.97600
O1199       O  0.63420158  0.53093242  0.28602415    -0.83000
O1200       O  0.68013122  0.53443309  0.25673624    -0.85600
C1201       C  0.69609670  0.54646961  0.23914178     1.02100
O1202       O  0.68264029  0.56986344  0.21545568    -0.78400
O1203       O  0.65605656  0.64714464  0.22826778    -0.78500
C1204       C  0.63744644  0.66999823  0.23787190     1.02000
Cr1205     Cr  0.59803849  0.59939431  0.24732858     1.93700
Cr1206     Cr  0.63362354  0.52163937  0.24018087     1.93200
Cr1207     Cr  0.63731496  0.59763999  0.20031683     1.39100
O1208       O  0.62384257  0.57329852  0.22961570    -1.23600
O1209       O  0.92374543  0.38465030  0.31628202    -0.85900
O1210       O  0.89852607  0.45739259  0.32583064    -0.82900
C1211       C  0.89006442  0.49403065  0.32200835     0.97600
O1212       O  0.87988964  0.50850879  0.29402133    -0.83000
O1213       O  0.92858512  0.50296247  0.26402394    -0.85600
C1214       C  0.94599516  0.48734253  0.24881939     1.02100
O1215       O  0.93793884  0.45404314  0.23374212    -0.78400
O1216       O  0.95319592  0.40904528  0.28796241    -0.78600
C1217       C  0.95169809  0.39291643  0.31328981     1.02100
O1218       O  0.86044341  0.36162874  0.26871748    -0.85900
O1219       O  0.83436052  0.43985519  0.28044569    -0.82900
C1220       C  0.81992870  0.46172918  0.25613216     0.97600
O1221       O  0.83496686  0.47231919  0.23720174    -0.83000
O1222       O  0.87984894  0.47185718  0.20502385    -0.85600
C1223       C  0.87867550  0.43812194  0.18931357     1.02100
O1224       O  0.88453836  0.40443500  0.20384295    -0.78400
O1225       O  0.90467048  0.35149384  0.25607392    -0.78500
C1226       C  0.87902915  0.33772734  0.25997800     1.02000
Cr1227     Cr  0.87970330  0.41231307  0.29498055     1.93700
Cr1228     Cr  0.88178946  0.48515430  0.25116107     1.93200
Cr1229     Cr  0.91774136  0.40663469  0.24689383     1.39100
O1230       O  0.89223374  0.43443382  0.26405261    -1.23600
O1231       O  0.82580729  0.12522455  0.20773598    -0.85900
O1232       O  0.81182984  0.05240385  0.22667364    -0.82900
C1233       C  0.81249597  0.01871369  0.23966178     0.97600
O1234       O  0.83855278  0.99969465  0.24989766    -0.83000
O1235       O  0.86501885  0.99112472  0.19922899    -0.85600
C1236       C  0.87944368  0.00162206  0.17948460     1.02100
O1237       O  0.89359449  0.03619031  0.18244259    -0.78400
O1238       O  0.84519601  0.09352217  0.17393570    -0.78600
C1239       C  0.82212655  0.11264583  0.17950642     1.02100
O1240       O  0.87660225  0.13811674  0.26701782    -0.85900
O1241       O  0.85678620  0.06648071  0.29087885    -0.82900
C1242       C  0.87991132  0.04365733  0.30595786     0.97600
O1243       O  0.89828078  0.02861122  0.29133655    -0.83000
O1244       O  0.92571499  0.01465786  0.24297019    -0.85600
C1245       C  0.94551058  0.04242803  0.24121202     1.02100
O1246       O  0.93617206  0.07917977  0.23451431    -0.78400
O1247       O  0.88958456  0.14495014  0.22320053    -0.78500
C1248       C  0.88471583  0.16094014  0.24778680     1.02000
Cr1249     Cr  0.84527363  0.09314597  0.24741159     1.93700
Cr1250     Cr  0.88119116  0.01283810  0.24476029     1.93200
Cr1251     Cr  0.89001870  0.08745452  0.20592230     1.39100
O1252       O  0.87322182  0.06489394  0.23359770    -1.23600
O1253       O  0.70099715  0.09909188  0.04825583    -0.85900
O1254       O  0.68606886  0.04989267  0.99485824    -0.82900
C1255       C  0.69678952  0.01963750  0.01152958     0.97600
O1256       O  0.68114523  0.00442832  0.02858285    -0.83000
O1257       O  0.63380793  0.99574142  0.05997541    -0.85600
C1258       C  0.64096229  0.01431869  0.08701536     1.02100
O1259       O  0.64463155  0.05259990  0.08913438    -0.78400
O1260       O  0.67161588  0.12299310  0.07717584    -0.78600
C1261       C  0.69948682  0.11493596  0.07404978     1.02100
O1262       O  0.65324724  0.15806639  0.51676024    -0.85900
O1263       O  0.63020159  0.10057819  0.46584391    -0.82900
C1264       C  0.62365201  0.06558958  0.45203816     0.97600
O1265       O  0.62624304  0.03321135  0.46837315    -0.83000
O1266       O  0.58619118  0.02104184  0.00268669    -0.85600
C1267       C  0.56965268  0.03637468  0.01882174     1.02100
O1268       O  0.58234217  0.06372462  0.04082699    -0.78400
O1269       O  0.60782681  0.14000527  0.02742733    -0.78500
C1270       C  0.62586065  0.16411602  0.01813473     1.02000
Cr1271     Cr  0.66531879  0.09658631  0.00796229     1.93700
Cr1272     Cr  0.63344546  0.01563361  0.01619363     1.93200
Cr1273     Cr  0.62727497  0.09327524  0.05595781     1.39100
O1274       O  0.64114670  0.06846087  0.02663996    -1.23600
O1275       O  0.59898710  0.40514042  0.41421967    -0.85900
O1276       O  0.65115408  0.46036879  0.42641053    -0.82900
C1277       C  0.63903148  0.49574632  0.42276692     0.97600
O1278       O  0.62427752  0.50885382  0.44160795    -0.83000
O1279       O  0.59299377  0.50590131  0.48816591    -0.85600
C1280       C  0.56556548  0.48904712  0.47554279     1.02100
O1281       O  0.56304184  0.45406276  0.46281276    -0.78400
O1282       O  0.57560262  0.37761210  0.44601525    -0.78600
C1283       C  0.57397877  0.38828848  0.41823039     1.02100
O1284       O  0.63741031  0.35467243  0.46654300    -0.85900
O1285       O  0.68787670  0.41792905  0.48131947    -0.82900
C1286       C  0.69969799  0.45380730  0.49083757     0.97600
O1287       O  0.68150299  0.48402270  0.48872169    -0.83000
O1288       O  0.65014770  0.46824003  0.03349973    -0.85600
C1289       C  0.63024170  0.45488190  0.04692549     1.02100
O1290       O  0.60462534  0.43570753  0.03049655    -0.78400
O1291       O  0.62081627  0.36181321  0.00873575    -0.78500
C1292       C  0.63015949  0.34283974  0.49096588     1.02000
Cr1293     Cr  0.64269964  0.41083703  0.44911763     1.93700
Cr1294     Cr  0.63596213  0.48913563  0.48662631     1.93200
Cr1295     Cr  0.59330199  0.41274782  0.48554203     1.39100
O1296       O  0.62472706  0.43732320  0.47437763    -1.23600
C1297       C  0.62173944  0.22573836  0.48114037    -0.20800
C1298       C  0.61827472  0.20731677  0.01026898    -0.07400
C1299       C  0.62232802  0.23758210  0.03463690     0.13500
C1300       C  0.62557228  0.27912668  0.02768600    -0.20900
C1301       C  0.62597792  0.29116647  0.99712339    -0.07400
C1302       C  0.62530580  0.26691925  0.47380278     0.13500
C1303       C  0.62624649  0.27606156  0.44053176    -0.24200
H1304       H  0.62178643  0.20177587  0.46366028     0.14700
H1305       H  0.62887090  0.30222817  0.04663553     0.14800
C1306       C  0.62523182  0.22576510  0.06841159    -0.24200
H1307       H  0.62309807  0.24779313  0.42521285     0.05000
H1308       H  0.65011503  0.29026352  0.44192524     0.08200
H1309       H  0.60617820  0.29687409  0.42846048     0.08200
H1310       H  0.64671394  0.20607889  0.07807549     0.08200
H1311       H  0.60294325  0.20858497  0.06850372     0.08200
H1312       H  0.62827584  0.25314586  0.08464246     0.05000
C1313       C  0.79082754  0.11982186  0.12142873    -0.20800
C1314       C  0.79059137  0.11964609  0.15324934    -0.07400
C1315       C  0.76000471  0.12389899  0.15882773     0.13500
C1316       C  0.73094077  0.12483311  0.13259558    -0.20900
C1317       C  0.73110040  0.12205780  0.10073829    -0.07400
C1318       C  0.76193570  0.12174104  0.09529084     0.13500
C1319       C  0.76521758  0.12397343  0.06210836    -0.24200
H1320       H  0.81397263  0.11793171  0.11687073     0.14700
H1321       H  0.70774651  0.12583968  0.13709494     0.14800
C1322       C  0.75706360  0.12585168  0.19212940    -0.24200
H1323       H  0.79098915  0.12834325  0.06302034     0.05000
H1324       H  0.75146984  0.15045839  0.04935379     0.08200
H1325       H  0.75629493  0.09509360  0.04817169     0.08200
H1326       H  0.77118821  0.15263659  0.20585243     0.08200
H1327       H  0.76576618  0.09711751  0.20470116     0.08200
H1328       H  0.73142546  0.12936611  0.19163863     0.05000
C1329       C  0.98319211  0.37894712  0.37104373    -0.20800
C1330       C  0.98326956  0.38481242  0.33947563    -0.07400
C1331       C  0.51339697  0.38525926  0.33324964     0.13500
C1332       C  0.54246248  0.38602744  0.35943919    -0.20900
C1333       C  0.54235699  0.38254281  0.39117451    -0.07400
C1334       C  0.51165890  0.37594383  0.39627160     0.13500
C1335       C  0.00961348  0.36675357  0.42956666    -0.24200
H1336       H  0.96005634  0.37714069  0.37561268     0.14700
H1337       H  0.56561186  0.38911823  0.35497491     0.14800
C1338       C  0.51640259  0.38323842  0.29992883    -0.24200
H1339       H  0.98387000  0.36228980  0.42871167     0.05000
H1340       H  0.51899349  0.39248696  0.44611525     0.08200
H1341       H  0.52195723  0.33808823  0.43789127     0.08200
H1342       H  0.50736180  0.41141849  0.28673475     0.08200
H1343       H  0.50245837  0.35612951  0.28650645     0.08200
H1344       H  0.54209326  0.38007473  0.30050897     0.05000
C1345       C  0.87397636  0.22416065  0.27632677    -0.20800
C1346       C  0.88326685  0.20676134  0.25086347    -0.07400
C1347       C  0.88689805  0.23332670  0.22675292     0.13500
C1348       C  0.88168953  0.27541375  0.22916057    -0.20900
C1349       C  0.87362977  0.29277749  0.25502729    -0.07400
C1350       C  0.86940124  0.26680418  0.27880820     0.13500
C1351       C  0.86141427  0.28413191  0.30738676    -0.24200
H1352       H  0.87044860  0.20441369  0.29457645     0.14700
H1353       H  0.88538178  0.29560120  0.21119170     0.14800
C1354       C  0.89658618  0.21857197  0.19827749    -0.24200
H1355       H  0.85921439  0.25966332  0.32391291     0.05000
H1356       H  0.83789019  0.30026001  0.29916719     0.08200
H1357       H  0.88091547  0.30613494  0.32102486     0.08200
H1358       H  0.87739593  0.19769608  0.18260254     0.08200
H1359       H  0.92024469  0.20275220  0.20666931     0.08200
H1360       H  0.89966927  0.24428415  0.18314546     0.05000
C1361       C  0.73850479  0.51673076  0.21785442    -0.20800
C1362       C  0.72907096  0.52754732  0.24457456    -0.07400
C1363       C  0.74859358  0.51328342  0.27509966     0.13500
C1364       C  0.77672605  0.48996235  0.27776571    -0.20900
C1365       C  0.78655711  0.47990211  0.25101922    -0.07400
C1366       C  0.76646270  0.49338364  0.22049344     0.13500
C1367       C  0.77428684  0.48388531  0.19022246    -0.24200
H1368       H  0.72323746  0.52599887  0.19412506     0.14700
H1369       H  0.79165306  0.48033468  0.30124384     0.14800
C1370       C  0.74049909  0.52300715  0.30540857    -0.24200
H1371       H  0.75397434  0.49145232  0.16835712     0.05000
H1372       H  0.77936846  0.45072834  0.18864985     0.08200
H1373       H  0.79551083  0.50319073  0.19039486     0.08200
H1374       H  0.71785746  0.50643636  0.30509105     0.08200
H1375       H  0.73756749  0.55661858  0.30776246     0.08200
H1376       H  0.75998741  0.51326584  0.32716415     0.05000
C1377       C  0.50366349  0.49263508  0.27334939    -0.20800
C1378       C  0.97679027  0.50419706  0.24829832    -0.07400
C1379       C  0.97994380  0.51459737  0.21833311     0.13500
C1380       C  0.51108126  0.51244981  0.21432327    -0.20900
C1381       C  0.53804941  0.50078202  0.23966412    -0.07400
C1382       C  0.53426747  0.49000047  0.26931186     0.13500
C1383       C  0.56274281  0.47594736  0.29675407    -0.24200
H1384       H  0.50036048  0.48319363  0.29572499     0.14700
H1385       H  0.51451064  0.52304829  0.19227333     0.14800
C1386       C  0.95109135  0.52824254  0.19128397    -0.24200
H1387       H  0.55526338  0.46738684  0.31781775     0.05000
H1388       H  0.58157775  0.50067476  0.30473752     0.08200
H1389       H  0.57354074  0.44861341  0.28887450     0.08200
H1390       H  0.94083475  0.55608915  0.19904913     0.08200
H1391       H  0.93199919  0.50378415  0.18446169     0.08200
H1392       H  0.95798652  0.53523820  0.16961902     0.05000
C1393       C  0.61841779  0.54911959  0.38104210    -0.20800
C1394       C  0.64264791  0.52113244  0.39603731    -0.07400
C1395       C  0.66925603  0.51621871  0.38392188     0.13500
C1396       C  0.66826987  0.53409367  0.35483797    -0.20900
C1397       C  0.64225040  0.55822239  0.33805288    -0.07400
C1398       C  0.61806821  0.56804162  0.35229807     0.13500
C1399       C  0.59084546  0.59643865  0.33630370    -0.24200
H1400       H  0.59865536  0.55444630  0.39079767     0.14700
H1401       H  0.68723447  0.52749913  0.34423625     0.14800
C1402       C  0.69912660  0.49274888  0.40149995    -0.24200
H1403       H  0.57413003  0.60086279  0.35072592     0.05000
H1404       H  0.57633458  0.58364546  0.31241437     0.08200
H1405       H  0.60114329  0.62697955  0.33341240     0.08200
H1406       H  0.69335154  0.45947609  0.40135868     0.08200
H1407       H  0.70893078  0.50505455  0.42649283     0.08200
H1408       H  0.71865101  0.49606743  0.39022760     0.05000
C1409       C  0.62289920  0.45890499  0.13174031    -0.20800
C1410       C  0.63398086  0.49928567  0.14118704    -0.07400
C1411       C  0.64784195  0.52225882  0.12136027     0.13500
C1412       C  0.64833734  0.50532980  0.09198519    -0.20900
C1413       C  0.63464981  0.46649376  0.08104321    -0.07400
C1414       C  0.62269186  0.44234623  0.10168550     0.13500
C1415       C  0.60989233  0.39911870  0.09237082    -0.24200
H1416       H  0.61297601  0.44108432  0.14711919     0.14700
H1417       H  0.65789954  0.52382897  0.07648230     0.14800
C1418       C  0.66218074  0.56496563  0.13075008    -0.24200
H1419       H  0.60396119  0.38381072  0.11228743     0.05000
H1420       H  0.62855241  0.38065220  0.08617549     0.08200
H1421       H  0.58726788  0.39927252  0.07157020     0.08200
H1422       H  0.68105921  0.56463000  0.15464891     0.08200
H1423       H  0.64291622  0.58683228  0.13118412     0.08200
H1424       H  0.67395096  0.57681429  0.11345607     0.05000
C1425       C  0.63604625  0.78469883  0.22579734    -0.20800
C1426       C  0.63172293  0.79884532  0.25476874    -0.07400
C1427       C  0.63466915  0.77008972  0.27950778     0.13500
C1428       C  0.64046546  0.72875501  0.27410993    -0.20900
C1429       C  0.64316012  0.71451462  0.24479164    -0.07400
C1430       C  0.64122849  0.74285788  0.22037908     0.13500
C1431       C  0.64298291  0.72866629  0.18813918    -0.24200
H1432       H  0.63475338  0.80633248  0.20700374     0.14700
H1433       H  0.64125692  0.70666469  0.29247477     0.14800
C1434       C  0.63193539  0.78193516  0.31194646    -0.24200
H1435       H  0.64097863  0.75468420  0.17166476     0.05000
H1436       H  0.62277576  0.70642403  0.17675533     0.08200
H1437       H  0.66659130  0.71359917  0.19120064     0.08200
H1438       H  0.60746966  0.79438442  0.30911459     0.08200
H1439       H  0.65117607  0.80495088  0.32418565     0.08200
H1440       H  0.63507113  0.75525078  0.32796340     0.05000
C1441       C  0.60049184  0.01525488  0.37074644    -0.20800
C1442       C  0.62865076  0.02386003  0.36210006    -0.07400
C1443       C  0.65060082  0.05501511  0.37948324     0.13500
C1444       C  0.64575174  0.07297368  0.40705749    -0.20900
C1445       C  0.61980371  0.06011746  0.41767726    -0.07400
C1446       C  0.59602738  0.03257416  0.39840142     0.13500
C1447       C  0.56638958  0.02040447  0.40751141    -0.24200
H1448       H  0.58245871  0.99323895  0.35667758     0.14700
H1449       H  0.66394620  0.09421135  0.42198942     0.14800
C1450       C  0.67999666  0.06784518  0.37039446    -0.24200
H1451       H  0.54958719  0.99975924  0.38903095     0.05000
H1452       H  0.55286702  0.04830903  0.41006880     0.08200
H1453       H  0.57356915  0.00390415  0.43048834     0.08200
H1454       H  0.67213805  0.08027524  0.34581109     0.08200
H1455       H  0.69587631  0.04109990  0.37129212     0.08200
H1456       H  0.69465931  0.09217369  0.38696368     0.05000
C1457       C  0.61553518  0.97591304  0.12202688    -0.20800
C1458       C  0.64379466  0.99257752  0.11728481    -0.07400
C1459       C  0.67257458  0.99630394  0.14384749     0.13500
C1460       C  0.67220908  0.98454469  0.17438217    -0.20900
C1461       C  0.64346668  0.97074513  0.17961629    -0.07400
C1462       C  0.61481047  0.96582968  0.15299336     0.13500
C1463       C  0.58357438  0.95000046  0.15717350    -0.24200
H1464       H  0.59351235  0.97277087  0.10173419     0.14700
H1465       H  0.69436482  0.98784808  0.19472258     0.14800
C1466       C  0.70372973  0.01316773  0.14007986    -0.24200
H1467       H  0.56372906  0.94708917  0.13385348     0.05000
H1468       H  0.57549980  0.97144951  0.17295975     0.08200
H1469       H  0.58741680  0.91925303  0.16812894     0.08200
H1470       H  0.70049514  0.04534627  0.13208877     0.08200
H1471       H  0.71061477  0.99425667  0.12203206     0.08200
H1472       H  0.72416563  0.01296845  0.16302123     0.05000
C1473       C  0.98050257  0.98777197  0.23158356    -0.20800
C1474       C  0.97859470  0.02749680  0.24453961    -0.07400
C1475       C  0.50774091  0.04583721  0.26586845     0.13500
C1476       C  0.53676003  0.02363644  0.27382390    -0.20900
C1477       C  0.53856328  0.98435659  0.25990603    -0.07400
C1478       C  0.51067132  0.96769228  0.23686497     0.13500
C1479       C  0.51168007  0.92770394  0.21949038    -0.24200
H1480       H  0.95851540  0.97240351  0.21670590     0.14700
H1481       H  0.55822210  0.03708905  0.29107321     0.14800
C1482       C  0.00675213  0.08987352  0.27758163    -0.24200
H1483       H  0.48774956  0.91966824  0.20151511     0.05000
H1484       H  0.51830069  0.90253034  0.23693772     0.08200
H1485       H  0.52999848  0.93007333  0.20666434     0.08200
H1486       H  0.99068792  0.09016038  0.29292465     0.08200
H1487       H  0.99750646  0.11174442  0.25779088     0.08200
H1488       H  0.53138927  0.09628291  0.29846499     0.05000
C1489       C  0.75234227  0.95825817  0.26589765    -0.20800
C1490       C  0.73900676  0.99008187  0.27953091    -0.07400
C1491       C  0.74940956  0.03104459  0.27928405     0.13500
C1492       C  0.77297087  0.03929215  0.26488967    -0.20900
C1493       C  0.78555329  0.00762712  0.25043941    -0.07400
C1494       C  0.77539646  0.96668124  0.25087598     0.13500
C1495       C  0.78750151  0.93242942  0.23428997    -0.24200
H1496       H  0.74319679  0.92695505  0.26516312     0.14700
H1497       H  0.78197013  0.07063443  0.26530633     0.14800
C1498       C  0.73604500  0.06584008  0.29422549    -0.24200
H1499       H  0.77508066  0.90267116  0.23535617     0.05000
H1500       H  0.81398949  0.92838494  0.24591902     0.08200
H1501       H  0.78273734  0.93970189  0.20861652     0.08200
H1502       H  0.73895232  0.05913890  0.31967363     0.08200
H1503       H  0.70992952  0.07015328  0.28092975     0.08200
H1504       H  0.74896661  0.09539569  0.29370506     0.05000
C1505       C  0.50054007  0.62756966  0.09736880    -0.20800
C1506       C  0.96934490  0.62090447  0.10388372    -0.07400
C1507       C  0.97135611  0.61815264  0.13654609     0.13500
C1508       C  0.50415792  0.61954824  0.16120096    -0.20900
C1509       C  0.53368029  0.62237335  0.15387437    -0.07400
C1510       C  0.53149211  0.62791865  0.12129631     0.13500
C1511       C  0.56149017  0.63267434  0.11119321    -0.24200
H1512       H  0.49937273  0.63031398  0.07246222     0.14700
H1513       H  0.50504717  0.61667025  0.18605136     0.14800
C1514       C  0.94113031  0.61730987  0.14658555    -0.24200
H1515       H  0.55527801  0.63646165  0.08486223     0.05000
H1516       H  0.57665307  0.60497345  0.11761491     0.08200
H1517       H  0.57575411  0.66032309  0.12322738     0.08200
H1518       H  0.92679639  0.58855824  0.13794613     0.08200
H1519       H  0.92594024  0.64409578  0.13660608     0.08200
H1520       H  0.94716194  0.61920659  0.17310074     0.05000
C1521       C  0.85215282  0.46946832  0.10262838    -0.20800
C1522       C  0.88204540  0.46899747  0.09622698    -0.07400
C1523       C  0.90868655  0.44950386  0.11803291     0.13500
C1524       C  0.90546122  0.43445607  0.14690750    -0.20900
C1525       C  0.87675609  0.44022254  0.15498499    -0.07400
C1526       C  0.84950777  0.45647894  0.13194835     0.13500
C1527       C  0.81835978  0.46311528  0.13923229    -0.24200
H1528       H  0.83131459  0.48352093  0.08567007     0.14700
H1529       H  0.92652089  0.42200897  0.16466898     0.14800
C1530       C  0.94109796  0.44761407  0.11227438    -0.24200
H1531       H  0.79890993  0.47493853  0.11830917     0.05000
H1532       H  0.82328384  0.48623631  0.15895126     0.08200
H1533       H  0.80956222  0.43382505  0.14644635     0.08200
H1534       H  0.95030748  0.47919552  0.11053642     0.08200
H1535       H  0.93841589  0.43012979  0.08961008     0.08200
H1536       H  0.95950993  0.43215236  0.13206955     0.05000
C1537       C  0.91653082  0.54786591  0.40398651    -0.20800
C1538       C  0.88992798  0.53811281  0.41495739    -0.07400
C1539       C  0.86166444  0.52008310  0.39232658     0.13500
C1540       C  0.86150169  0.51022607  0.36092826    -0.20900
C1541       C  0.88878099  0.51724071  0.35101524    -0.07400
C1542       C  0.91640852  0.53708138  0.37256982     0.13500
C1543       C  0.94606500  0.54550515  0.36260108    -0.24200
H1544       H  0.93835345  0.56207997  0.42055278     0.14700
H1545       H  0.84057647  0.49418739  0.34455206     0.14800
C1546       C  0.83171559  0.50964509  0.40098612    -0.24200
H1547       H  0.96562335  0.56159881  0.38200646     0.05000
H1548       H  0.93943173  0.56517851  0.34120141     0.08200
H1549       H  0.95578426  0.51616542  0.35652027     0.08200
H1550       H  0.82346584  0.53747880  0.41090709     0.08200
H1551       H  0.83741206  0.48474783  0.41860213     0.08200
H1552       H  0.81132250  0.49832755  0.37991203     0.05000
C1553       C  0.77425669  0.51131852  0.02466166    -0.20800
C1554       C  0.78755395  0.50925236  0.99945900    -0.07400
C1555       C  0.77678009  0.48641400  0.47777159     0.13500
C1556       C  0.74964692  0.46162632  0.47668552    -0.20900
C1557       C  0.73475351  0.46477524  0.50049361    -0.07400
C1558       C  0.74786136  0.48569609  0.02483324     0.13500
C1559       C  0.73477581  0.48894418  0.05278821    -0.24200
H1560       H  0.78523217  0.53217472  0.04484116     0.14700
H1561       H  0.73841639  0.44203524  0.45578606     0.14800
C1562       C  0.78991020  0.48358520  0.45002404    -0.24200
H1563       H  0.74975490  0.51043298  0.07184772     0.05000
H1564       H  0.73495446  0.45828614  0.06349212     0.08200
H1565       H  0.70961863  0.50053464  0.04492506     0.08200
H1566       H  0.81475435  0.47105086  0.45806499     0.08200
H1567       H  0.79013077  0.51463275  0.44015822     0.08200
H1568       H  0.77477068  0.46296014  0.43039138     0.05000
C1569       C  0.54488561  0.51469811  0.51690821    -0.20800
C1570       C  0.53833699  0.50403458  0.48429675    -0.07400
C1571       C  0.50686275  0.49584987  0.96420778     0.13500
C1572       C  0.48118472  0.50083643  0.97632241    -0.20900
C1573       C  0.98584290  0.51145134  0.00806341    -0.07400
C1574       C  0.02002020  0.51909503  0.52903734     0.13500
C1575       C  0.02795245  0.52802468  0.56453713    -0.24200
H1576       H  0.56982527  0.51810771  0.53256930     0.14700
H1577       H  0.45645921  0.49745916  0.96013634     0.14800
C1578       C  0.49986036  0.48606104  0.92887320    -0.24200
H1579       H  0.05464481  0.53000858  0.57692103     0.05000
H1580       H  0.01767693  0.50320296  0.57567054     0.08200
H1581       H  0.01767983  0.55772428  0.56858364     0.08200
H1582       H  0.47330067  0.48503513  0.91583049     0.08200
H1583       H  0.50945648  0.45578450  0.92504300     0.08200
H1584       H  0.51122623  0.51006021  0.91800963     0.05000
C1585       C  0.71843848  0.88382449  0.39467535    -0.20800
C1586       C  0.71794977  0.87508842  0.36317888    -0.07400
C1587       C  0.74771721  0.86256153  0.35853567     0.13500
C1588       C  0.77710398  0.86404276  0.38457661    -0.20900
C1589       C  0.77795558  0.87593078  0.41572100    -0.07400
C1590       C  0.74740105  0.88326366  0.42092918     0.13500
C1591       C  0.74422398  0.88999923  0.45395449    -0.24200
H1592       H  0.69586096  0.89181539  0.39884290     0.14700
H1593       H  0.79975896  0.85678940  0.38032090     0.14800
C1594       C  0.74935525  0.84805317  0.32627163    -0.24200
H1595       H  0.71838975  0.89169033  0.45322208     0.05000
H1596       H  0.75610400  0.91931151  0.46492865     0.08200
H1597       H  0.75519065  0.86405258  0.46949942     0.08200
H1598       H  0.74295544  0.87326377  0.30887502     0.08200
H1599       H  0.73249956  0.82131619  0.31736939     0.08200
H1600       H  0.77415139  0.83799552  0.32759787     0.05000
C1601       C  0.88579613  0.72542126  0.02782029    -0.20800
C1602       C  0.87547756  0.69960778  0.00026701    -0.07400
C1603       C  0.88241045  0.71980471  0.47568860     0.13500
C1604       C  0.88605344  0.76272566  0.47429397    -0.20900
C1605       C  0.89023918  0.78831322  0.50132668    -0.07400
C1606       C  0.88991145  0.76807086  0.02562066     0.13500
C1607       C  0.90021542  0.79443543  0.05586669    -0.24200
H1608       H  0.89122003  0.71210393  0.05130679     0.14700
H1609       H  0.88403792  0.77666579  0.45150813     0.14800
C1610       C  0.87703729  0.69456728  0.44522885    -0.24200
H1611       H  0.90462017  0.77575843  0.07769038     0.05000
H1612       H  0.87636495  0.81793856  0.55775336     0.08200
H1613       H  0.92308284  0.81154521  0.05757444     0.08200
H1614       H  0.85433345  0.67571366  0.44011985     0.08200
H1615       H  0.87454796  0.67003266  0.93677108     0.08200
H1616       H  0.87458984  0.71421798  0.42421280     0.05000
C1617       C  0.98882437  0.00465978  0.53035172    -0.20800
C1618       C  0.97561151  0.97968041  0.50218185    -0.07400
C1619       C  0.49239964  0.97248780  0.97657064     0.13500
C1620       C  0.52125628  0.99661861  0.98274672    -0.20900
C1621       C  0.53576595  0.01829838  0.01222462    -0.07400
C1622       C  0.52014636  0.01552113  0.03597356     0.13500
C1623       C  0.53407302  0.03658232  0.06839514    -0.24200
H1624       H  0.97629912  0.00564958  0.54813254     0.14700
H1625       H  0.53311301  0.99769996  0.96437515     0.14800
C1626       C  0.47986755  0.94879215  0.94514129    -0.27400
H1627       H  0.01210751  0.05307898  0.58081639     0.05000
H1628       H  0.52943848  0.08653849  0.56112859     0.08200
H1629       H  0.55899855  0.02576532  0.08047664     0.08200
H1630       H  0.45390204  0.97029247  0.43305579     0.08200
H1631       H  0.47958458  0.91542241  0.94980209     0.08200
H1632       H  0.49540902  0.95392054  0.92963821     0.05000
C1633       C  0.73234998  0.00588590  0.97972399    -0.20800
C1634       C  0.72794885  0.00549436  0.01018136    -0.07400
C1635       C  0.74857325  0.99807657  0.53720921     0.13500
C1636       C  0.77974297  0.99458838  0.53474203    -0.20900
C1637       C  0.78528754  0.99664489  0.50484219    -0.07400
C1638       C  0.76332712  0.00506065  0.97649501     0.13500
C1639       C  0.76709666  0.00522878  0.94349736    -0.24200
H1640       H  0.71135383  0.00823981  0.95838744     0.14700
H1641       H  0.79997468  0.98897362  0.55626343     0.14800
C1642       C  0.74377981  0.99662596  0.56973522    -0.24200
H1643       H  0.74321474  0.00698841  0.92433284     0.05000
H1644       H  0.77906907  0.97682875  0.93907333     0.08200
H1645       H  0.78216085  0.03232879  0.94165144     0.08200
H1646       H  0.72701748  0.97067051  0.57006138     0.08200
H1647       H  0.73332387  0.02580067  0.57506456     0.08200
H1648       H  0.76709600  0.99213136  0.58917018     0.05000
C1649       C  0.85900048  0.93488669  0.10341215    -0.20800
C1650       C  0.88776693  0.94054774  0.09535521    -0.07400
C1651       C  0.91505652  0.95967267  0.11772602     0.13500
C1652       C  0.91212745  0.97610397  0.14637688    -0.20900
C1653       C  0.88242360  0.97416424  0.15321721    -0.07400
C1654       C  0.85595833  0.95161830  0.13215635     0.13500
C1655       C  0.82392553  0.94790307  0.13865514    -0.24200
H1656       H  0.83794647  0.92040746  0.08593711     0.14700
H1657       H  0.93267956  0.99287373  0.16263593     0.14800
C1658       C  0.94694130  0.96381838  0.11088654    -0.24200
H1659       H  0.80544748  0.93049326  0.11911431     0.05000
H1660       H  0.81434400  0.97892762  0.14073851     0.08200
H1661       H  0.82736439  0.93150042  0.16139293     0.08200
H1662       H  0.94388869  0.98253122  0.08929955     0.08200
H1663       H  0.95546663  0.93286228  0.10665132     0.08200
H1664       H  0.96609796  0.97886888  0.13128620     0.05000
C1665       C  0.86545375  0.05365298  0.35713108    -0.20800
C1666       C  0.88281750  0.03161244  0.33985986    -0.07400
C1667       C  0.89903226  0.99562765  0.35390398     0.13500
C1668       C  0.89559659  0.98167642  0.38283786    -0.20900
C1669       C  0.87760311  0.00293853  0.39947226    -0.07400
C1670       C  0.86297622  0.04000515  0.38679378     0.13500
C1671       C  0.84340589  0.06395070  0.40361727    -0.24200
H1672       H  0.85294811  0.08122113  0.34697722     0.14700
H1673       H  0.90672066  0.95305294  0.39239815     0.14800
C1674       C  0.91921948  0.97046493  0.33836162    -0.24200
H1675       H  0.83286215  0.09171598  0.39020946     0.05000
H1676       H  0.85923466  0.07401880  0.42788325     0.08200
H1677       H  0.82310633  0.04437987  0.40596036     0.08200
H1678       H  0.93947598  0.98971404  0.33557825     0.08200
H1679       H  0.90376761  0.95814006  0.31461862     0.08200
H1680       H  0.93028258  0.94382730  0.35304673     0.05000
O1681       O  0.83607517  0.87604771  0.93465515    -0.85900
O1682       O  0.86444809  0.94716755  0.92439473    -0.82900
C1683       C  0.87447443  0.98384528  0.92866158     0.97600
O1684       O  0.88601545  0.99888686  0.95692078    -0.83000
O1685       O  0.83732999  0.99725216  0.98705456    -0.85600
C1686       C  0.81965938  0.98361724  0.00271676     1.02100
O1687       O  0.82640223  0.95090780  0.01764974    -0.78400
O1688       O  0.80844479  0.90177502  0.96446580    -0.78600
C1689       C  0.80883527  0.88564681  0.93838767     1.02100
O1690       O  0.89862779  0.85321297  0.98136612    -0.85900
O1691       O  0.92784517  0.92964231  0.96950426    -0.82900
C1692       C  0.94307408  0.95242389  0.99402095     0.97600
O1693       O  0.92864116  0.96326237  0.01344397    -0.83000
O1694       O  0.88254565  0.97269912  0.54563791    -0.85600
C1695       C  0.88588672  0.94039364  0.56231407     1.02100
O1696       O  0.88083242  0.90509682  0.54905076    -0.78400
O1697       O  0.85841847  0.84559248  0.49974772    -0.78500
C1698       C  0.87994778  0.83037909  0.99113061     1.02000
Cr1699     Cr  0.88135431  0.90295544  0.95525925     1.93700
Cr1700     Cr  0.88307359  0.97827541  0.99955124     1.93200
Cr1701     Cr  0.84448269  0.90144057  0.00466117     1.39100
O1702       O  0.87017414  0.92731023  0.98651885    -1.23600
O1703       O  0.94173652  0.62599601  0.55324273    -0.85900
O1704       O  0.96016466  0.55568848  0.53231187    -0.82900
C1705       C  0.96016319  0.52194286  0.51845739     0.97600
O1706       O  0.93417856  0.50167628  0.50616243    -0.83000
O1707       O  0.90487571  0.48820449  0.55352544    -0.85600
C1708       C  0.88916542  0.49670189  0.57264560     1.02100
O1709       O  0.87400088  0.52993061  0.57036641    -0.78400
O1710       O  0.92015805  0.59191459  0.58374502    -0.78600
C1711       C  0.94374732  0.61285728  0.58067316     1.02100
O1712       O  0.88693765  0.63181681  0.98718255    -0.85900
O1713       O  0.91347360  0.56632936  0.96456527    -0.82900
C1714       C  0.89130875  0.54254722  0.94707297     0.97600
O1715       O  0.87314087  0.52273639  0.95963418    -0.83000
O1716       O  0.84472411  0.50679994  0.50847389    -0.85600
C1717       C  0.82369173  0.53245634  0.50972604     1.02100
O1718       O  0.83190523  0.56978478  0.51861319    -0.78400
O1719       O  0.87699974  0.64130547  0.53397904    -0.78500
C1720       C  0.88266199  0.65633920  0.50961298     1.02000
Cr1721     Cr  0.92543445  0.59304712  0.51191015     1.93700
Cr1722     Cr  0.89023474  0.51004078  0.50904316     1.93200
Cr1723     Cr  0.87707495  0.58249221  0.54934884     1.39100
O1724       O  0.89678978  0.56203516  0.52281510    -1.23600
O1725       O  0.66318571  0.90299553  0.83639843    -0.85900
O1726       O  0.61618590  0.96087240  0.82700596    -0.82900
C1727       C  0.63149841  0.99479401  0.83265194     0.97600
O1728       O  0.64721323  0.00670365  0.81435371    -0.83000
O1729       O  0.67680125  0.00018646  0.76571091    -0.85600
C1730       C  0.70258895  0.98064352  0.77662976     1.02100
O1731       O  0.70230732  0.94621462  0.78839382    -0.78400
O1732       O  0.68455581  0.87266653  0.80372723    -0.78600
C1733       C  0.68689690  0.88441252  0.83181401     1.02100
O1734       O  0.62087343  0.85395312  0.78369290    -0.85900
O1735       O  0.57510561  0.92160990  0.77200519    -0.82900
C1736       C  0.56667182  0.95896922  0.76680424     0.97600
O1737       O  0.58729071  0.98687016  0.76753817    -0.83000
O1738       O  0.61760952  0.97431678  0.72082293    -0.85600
C1739       C  0.63679342  0.95854359  0.70743240     1.02100
O1740       O  0.65975290  0.93617407  0.72327688    -0.78400
O1741       O  0.63665706  0.86467539  0.74203966    -0.78500
C1742       C  0.62779585  0.83998481  0.75949976     1.02000
Cr1743     Cr  0.62000318  0.91090091  0.80251004     1.93700
Cr1744     Cr  0.63280171  0.98775066  0.76802026     1.93200
Cr1745     Cr  0.66838229  0.90725750  0.76503086     1.39100
O1746       O  0.63946954  0.93504578  0.77766096    -1.23600
O1747       O  0.56611885  0.59569791  0.70910146    -0.85900
O1748       O  0.58041033  0.54505668  0.75986964    -0.82900
C1749       C  0.57225360  0.51357030  0.74234139     0.97600
O1750       O  0.59006817  0.50005522  0.72674332    -0.83000
O1751       O  0.64115683  0.49820006  0.69918880    -0.85600
C1752       C  0.63204752  0.51574554  0.67238643     1.02100
O1753       O  0.62165184  0.55144174  0.67085052    -0.78400
O1754       O  0.59659873  0.62223261  0.68252963    -0.78600
C1755       C  0.56843674  0.61241057  0.68421515     1.02100
O1756       O  0.61489571  0.65070234  0.74481204    -0.85900
O1757       O  0.63414387  0.59291011  0.79350499    -0.82900
C1758       C  0.63980855  0.55785853  0.80585784     0.97600
O1759       O  0.63753920  0.52569339  0.78819100    -0.83000
O1760       O  0.68345389  0.53019653  0.75873852    -0.85600
C1761       C  0.69937173  0.54365276  0.74153559     1.02100
O1762       O  0.68560759  0.56721386  0.71813722    -0.78400
O1763       O  0.65923236  0.64344376  0.73184014    -0.78500
C1764       C  0.64053895  0.66574365  0.74175095     1.02000
Cr1765     Cr  0.60120991  0.59451223  0.75042519     1.93700
Cr1766     Cr  0.63694507  0.51730235  0.74225604     1.93200
Cr1767     Cr  0.64034398  0.59438173  0.70340141     1.39100
O1768       O  0.62704140  0.56913305  0.73239963    -1.23600
O1769       O  0.92481777  0.38219238  0.81543517    -0.85900
O1770       O  0.90296300  0.45735322  0.82480914    -0.82900
C1771       C  0.89371444  0.49366329  0.82070059     0.97600
O1772       O  0.88375660  0.50772619  0.79259827    -0.83000
O1773       O  0.93336970  0.49895244  0.76355755    -0.85600
C1774       C  0.95076708  0.48199356  0.74887958     1.02100
O1775       O  0.94185453  0.44894789  0.73348905    -0.78400
O1776       O  0.95520552  0.40297752  0.78687450    -0.78600
C1777       C  0.95293313  0.38797530  0.81227591     1.02100
O1778       O  0.86099130  0.36264778  0.76878468    -0.85900
O1779       O  0.83822916  0.44203073  0.78007480    -0.82900
C1780       C  0.82416089  0.46341137  0.75543724     0.97600
O1781       O  0.83913265  0.47192237  0.73598495    -0.83000
O1782       O  0.88452373  0.46953577  0.70442563    -0.85600
C1783       C  0.88183130  0.43554521  0.68879398     1.02100
O1784       O  0.88626905  0.40187589  0.70325623    -0.78400
O1785       O  0.90402553  0.34866735  0.75483501    -0.78500
C1786       C  0.87829314  0.33720895  0.75980334     1.02000
Cr1787     Cr  0.88228880  0.41236564  0.79453196     1.93700
Cr1788     Cr  0.88613600  0.48337809  0.75021031     1.93200
Cr1789     Cr  0.91961374  0.40268416  0.74602591     1.39100
O1790       O  0.89527275  0.43252252  0.76332909    -1.23600
O1791       O  0.82896890  0.13008406  0.70718694    -0.85900
O1792       O  0.80964902  0.05914397  0.72393472    -0.82900
C1793       C  0.80823770  0.02462962  0.73506513     0.97600
O1794       O  0.83346784  0.00427514  0.74675172    -0.83000
O1795       O  0.86368942  0.99460723  0.69907784    -0.85600
C1796       C  0.88016368  0.00466871  0.68102374     1.02100
O1797       O  0.89637950  0.03780116  0.68624565    -0.78400
O1798       O  0.84922028  0.09697315  0.67483883    -0.78600
C1799       C  0.82582978  0.11679050  0.67926287     1.02100
O1800       O  0.87728793  0.13935927  0.76846756    -0.85900
O1801       O  0.85248988  0.06942738  0.78944380    -0.82900
C1802       C  0.87467134  0.04600884  0.80549743     0.97600
O1803       O  0.89309799  0.02860476  0.79205231    -0.83000
O1804       O  0.92371279  0.01335560  0.74652072    -0.85600
C1805       C  0.94507223  0.04028958  0.74728491     1.02100
O1806       O  0.93739664  0.07768387  0.74060337    -0.78400
O1807       O  0.89289988  0.14662178  0.72623058    -0.78500
C1808       C  0.88614715  0.16237961  0.74987671     1.02000
Cr1809     Cr  0.84456826  0.09697281  0.74677585     1.93700
Cr1810     Cr  0.87799740  0.01449545  0.74509581     1.93200
Cr1811     Cr  0.89273334  0.08887749  0.70923993     1.39100
O1812       O  0.87274206  0.06706945  0.73463814    -1.23600
O1813       O  0.70147885  0.10288839  0.54773562    -0.85900
O1814       O  0.68400987  0.05352375  0.49478480    -0.82900
C1815       C  0.69239157  0.02171918  0.51054319     0.97600
O1816       O  0.67538833  0.00741022  0.52668151    -0.83000
O1817       O  0.62676196  0.00347618  0.55700162    -0.85600
C1818       C  0.63785352  0.01943485  0.58491723     1.02100
O1819       O  0.64688624  0.05641669  0.58868532    -0.78400
O1820       O  0.67417286  0.12761531  0.57818069    -0.78600
C1821       C  0.70144812  0.11844183  0.57410880     1.02100
O1822       O  0.65246780  0.15212673  0.01624479    -0.85900
O1823       O  0.63103997  0.09300722  0.96593625    -0.82900
C1824       C  0.62591633  0.05752595  0.95277714     0.97600
O1825       O  0.62933262  0.02529767  0.96961477    -0.83000
O1826       O  0.58273683  0.03612597  0.50051713    -0.85600
C1827       C  0.56794227  0.04776616  0.51944062     1.02100
O1828       O  0.58276854  0.07141910  0.54360825    -0.78400
O1829       O  0.60982746  0.14812987  0.53092437    -0.78500
C1830       C  0.62740525  0.17118504  0.52005555     1.02000
Cr1831     Cr  0.66497918  0.10207913  0.50785383     1.93700
Cr1832     Cr  0.62888511  0.02381599  0.51429428     1.93200
Cr1833     Cr  0.62883623  0.09956826  0.55766336     1.39100
O1834       O  0.64026295  0.07536491  0.52655126    -1.23600
O1835       O  0.59750428  0.39857317  0.91547657    -0.85900
O1836       O  0.64952842  0.45317558  0.92692571    -0.82900
C1837       C  0.63792816  0.48878590  0.92342211     0.97600
O1838       O  0.62330615  0.50219163  0.94228038    -0.83000
O1839       O  0.59368286  0.50024852  0.99031978    -0.85600
C1840       C  0.56600010  0.48398644  0.97801660     1.02100
O1841       O  0.56278044  0.44862561  0.96584290    -0.78400
O1842       O  0.57361832  0.37243010  0.94756650    -0.78600
C1843       C  0.57246428  0.38211867  0.91963030     1.02100
O1844       O  0.63578884  0.34781410  0.96667659    -0.85900
O1845       O  0.68689393  0.41041116  0.98117058    -0.82900
C1846       C  0.69900728  0.44631127  0.99004843     0.97600
O1847       O  0.68100772  0.47670277  0.98807096    -0.83000
O1848       O  0.64899921  0.47425348  0.53270225    -0.85600
C1849       C  0.62881019  0.46009549  0.54553000     1.02100
O1850       O  0.60313468  0.44182812  0.52832082    -0.78400
O1851       O  0.62142580  0.36884595  0.50796089    -0.78500
C1852       C  0.62876317  0.33586001  0.99111897     1.02000
Cr1853     Cr  0.64131731  0.40390649  0.94967856     1.93700
Cr1854     Cr  0.63596816  0.48260466  0.98739073     1.93200
Cr1855     Cr  0.59303210  0.40672199  0.98743213     1.39100
O1856       O  0.62410474  0.43078373  0.97542212    -1.23600
C1857       C  0.61688322  0.21926662  0.97939586    -0.20800
C1858       C  0.61997187  0.21434105  0.51119131    -0.07400
C1859       C  0.62010819  0.24521634  0.53412713     0.13500
C1860       C  0.62388779  0.28668213  0.52705053    -0.20900
C1861       C  0.62768517  0.29815816  0.49751622    -0.07400
C1862       C  0.62052695  0.26056379  0.97234259     0.13500
C1863       C  0.61834199  0.27056092  0.93830241    -0.24200
H1864       H  0.61459253  0.19564482  0.96100137     0.14700
H1865       H  0.62444385  0.31020068  0.54502807     0.14800
C1866       C  0.61769132  0.23430702  0.56647702    -0.24200
H1867       H  0.61296012  0.24279482  0.92227446     0.05000
H1868       H  0.64187185  0.28380562  0.93765564     0.08200
H1869       H  0.59844707  0.29250109  0.92839612     0.08200
H1870       H  0.63837155  0.21475756  0.57925545     0.08200
H1871       H  0.59445128  0.21728510  0.56331003     0.08200
H1872       H  0.61825187  0.26210671  0.58170994     0.05000
C1873       C  0.79366843  0.11690700  0.62056485    -0.20800
C1874       C  0.79439318  0.12349332  0.65241462    -0.07400
C1875       C  0.76449184  0.13379980  0.65780016     0.13500
C1876       C  0.73499677  0.13327527  0.63188183    -0.20900
C1877       C  0.73402648  0.12425362  0.60020108    -0.07400
C1878       C  0.76448554  0.11812540  0.59453391     0.13500
C1879       C  0.76722940  0.11337897  0.56119732    -0.24200
H1880       H  0.81626757  0.11037605  0.61591690     0.14700
H1881       H  0.71235034  0.13904188  0.63660325     0.14800
C1882       C  0.76277768  0.14482276  0.69074170    -0.24200
H1883       H  0.79298758  0.11271029  0.56155259     0.05000
H1884       H  0.75571316  0.13974300  0.54645488     0.08200
H1885       H  0.75561993  0.08414152  0.54962249     0.08200
H1886       H  0.77854329  0.17221604  0.70065897     0.08200
H1887       H  0.77044167  0.11863042  0.70697191     0.08200
H1888       H  0.73768221  0.15250819  0.69015557     0.05000
C1889       C  0.98250220  0.37380261  0.87000186    -0.20800
C1890       C  0.98369719  0.37859566  0.83870432    -0.07400
C1891       C  0.51392053  0.37742801  0.83396877     0.13500
C1892       C  0.54246821  0.37735637  0.86066618    -0.20900
C1893       C  0.54136617  0.37565953  0.89221402    -0.07400
C1894       C  0.51025831  0.37073870  0.89662517     0.13500
C1895       C  0.00713844  0.36354953  0.92896038    -0.24200
H1896       H  0.95903160  0.37317500  0.87393470     0.14700
H1897       H  0.56596082  0.37887310  0.85678873     0.14800
C1898       C  0.51756950  0.37458116  0.80093815    -0.24200
H1899       H  0.98113899  0.36002105  0.92746474     0.05000
H1900       H  0.51674343  0.38888413  0.94602429     0.08200
H1901       H  0.51871314  0.33410487  0.93872051     0.08200
H1902       H  0.50977564  0.40314999  0.78773476     0.08200
H1903       H  0.50284958  0.34812089  0.78728019     0.08200
H1904       H  0.54326031  0.36981339  0.80206070     0.05000
C1905       C  0.88124260  0.22584174  0.78083333    -0.20800
C1906       C  0.88246559  0.20773461  0.75186744    -0.07400
C1907       C  0.87591516  0.23266877  0.72424731     0.13500
C1908       C  0.87043922  0.27459821  0.72707779    -0.20900
C1909       C  0.87126073  0.29284459  0.75635634    -0.07400
C1910       C  0.87606419  0.26816831  0.78345891     0.13500
C1911       C  0.87736104  0.28683254  0.81547614    -0.24200
H1912       H  0.88514786  0.20699992  0.80176936     0.14700
H1913       H  0.86733005  0.29406252  0.70655570     0.14800
C1914       C  0.87435994  0.21622380  0.69138436    -0.24200
H1915       H  0.88107055  0.26321646  0.83415879     0.05000
H1916       H  0.85413041  0.30240337  0.81329665     0.08200
H1917       H  0.89780329  0.30954589  0.82359407     0.08200
H1918       H  0.85497045  0.19227460  0.68318414     0.08200
H1919       H  0.89823382  0.20368922  0.69194711     0.08200
H1920       H  0.86846104  0.24046790  0.67306849     0.05000
C1921       C  0.74536250  0.52521440  0.72112912    -0.20800
C1922       C  0.73299213  0.52679588  0.74698777    -0.07400
C1923       C  0.75079839  0.50656870  0.77566449     0.13500
C1924       C  0.77936589  0.48508615  0.77703109    -0.20900
C1925       C  0.79145967  0.48289048  0.75090486    -0.07400
C1926       C  0.77380129  0.50364535  0.72245340     0.13500
C1927       C  0.78375042  0.50265446  0.69257980    -0.24200
H1928       H  0.73213863  0.53992437  0.69920287     0.14700
H1929       H  0.79255634  0.47011763  0.79901680     0.14800
C1930       C  0.74053148  0.50769759  0.80548904    -0.24200
H1931       H  0.76578370  0.51762333  0.67213218     0.05000
H1932       H  0.78552885  0.47020720  0.68523850     0.08200
H1933       H  0.80726546  0.51948632  0.69700193     0.08200
H1934       H  0.71761027  0.48968549  0.80147597     0.08200
H1935       H  0.73730820  0.53999054  0.81228583     0.08200
H1936       H  0.75899099  0.49396569  0.82622517     0.05000
C1937       C  0.50604279  0.48613900  0.77376757    -0.20800
C1938       C  0.98230982  0.49744628  0.74927461    -0.07400
C1939       C  0.98685466  0.50810408  0.71995784     0.13500
C1940       C  0.51454272  0.50827043  0.71565981    -0.20900
C1941       C  0.54117827  0.49585751  0.74105896    -0.07400
C1942       C  0.53689185  0.48403699  0.77026660     0.13500
C1943       C  0.56510685  0.46976074  0.79788852    -0.24200
H1944       H  0.50229167  0.47580898  0.79571968     0.14700
H1945       H  0.51839440  0.51957777  0.69400569     0.14800
C1946       C  0.95880786  0.52154840  0.69198041    -0.24200
H1947       H  0.55719949  0.46027663  0.81849455     0.05000
H1948       H  0.58364420  0.49474235  0.80659764     0.08200
H1949       H  0.57642198  0.44298054  0.78989324     0.08200
H1950       H  0.94766945  0.54897396  0.69926225     0.08200
H1951       H  0.94009640  0.49675009  0.68425093     0.08200
H1952       H  0.96675496  0.52933596  0.67104841     0.05000
C1953       C  0.62033783  0.54466506  0.88313662    -0.20800
C1954       C  0.64266849  0.51410591  0.89718115    -0.07400
C1955       C  0.66885435  0.50687291  0.88481781     0.13500
C1956       C  0.66902533  0.52517979  0.85633186    -0.20900
C1957       C  0.64471151  0.55195895  0.84033369    -0.07400
C1958       C  0.62130470  0.56407916  0.85495901     0.13500
C1959       C  0.59630778  0.59568973  0.84003686    -0.24200
H1960       H  0.60115881  0.55184777  0.89316960     0.14700
H1961       H  0.68752692  0.51687283  0.84546978     0.14800
C1962       C  0.69728519  0.48065021  0.90159612    -0.24200
H1963       H  0.57997914  0.60160054  0.85464231     0.05000
H1964       H  0.58103381  0.58500372  0.81573942     0.08200
H1965       H  0.60878139  0.62512558  0.83820656     0.08200
H1966       H  0.68982313  0.44781543  0.90040331     0.08200
H1967       H  0.70745606  0.49179461  0.92682599     0.08200
H1968       H  0.71706145  0.48278524  0.89054807     0.05000
C1969       C  0.62149981  0.45877331  0.63058187    -0.20800
C1970       C  0.63555157  0.49728628  0.64244328    -0.07400
C1971       C  0.65050415  0.52053194  0.62369668     0.13500
C1972       C  0.64971609  0.50578801  0.59334239    -0.20900
C1973       C  0.63336358  0.46911835  0.58013885    -0.07400
C1974       C  0.61975793  0.44458860  0.59940859     0.13500
C1975       C  0.60340774  0.40360519  0.58741504    -0.24200
H1976       H  0.61030140  0.44079761  0.64499278     0.14700
H1977       H  0.66042489  0.52457470  0.57894320     0.14800
C1978       C  0.66711712  0.56158961  0.63519031    -0.24200
H1979       H  0.59643648  0.38744703  0.60640762     0.05000
H1980       H  0.62024794  0.38365592  0.57960509     0.08200
H1981       H  0.58081821  0.40786024  0.56707243     0.08200
H1982       H  0.68586945  0.55838191  0.65878705     0.08200
H1983       H  0.64914609  0.58467287  0.63700473     0.08200
H1984       H  0.67943125  0.57382448  0.61844982     0.05000
C1985       C  0.64306625  0.78053494  0.73020034    -0.20800
C1986       C  0.63163605  0.79473386  0.75528966    -0.07400
C1987       C  0.62847047  0.76592802  0.77811958     0.13500
C1988       C  0.63631606  0.72485589  0.77497376    -0.20900
C1989       C  0.64558168  0.71037224  0.74893275    -0.07400
C1990       C  0.64955543  0.73868536  0.72647524     0.13500
C1991       C  0.65905374  0.72463531  0.69785482    -0.24200
H1992       H  0.64646507  0.80212630  0.71299298     0.14700
H1993       H  0.63303552  0.70288921  0.79204726     0.14800
C1994       C  0.61604713  0.77712141  0.80562598    -0.24200
H1995       H  0.66090964  0.75071637  0.68253360     0.05000
H1996       H  0.64053256  0.70236276  0.68292721     0.08200
H1997       H  0.68309350  0.70970449  0.70608557     0.08200
H1998       H  0.59158739  0.79077931  0.79622242     0.08200
H1999       H  0.63330601  0.79889422  0.82261738     0.08200
H2000       H  0.61349422  0.74989415  0.81958411     0.05000
C2001       C  0.60095962  0.01021474  0.87024000    -0.20800
C2002       C  0.62823136  0.01956022  0.86034403    -0.07400
C2003       C  0.65178841  0.04831023  0.87885916     0.13500
C2004       C  0.64846237  0.06437408  0.90775898    -0.20900
C2005       C  0.62241013  0.05190116  0.91850079    -0.07400
C2006       C  0.59785352  0.02574866  0.89891389     0.13500
C2007       C  0.56881568  0.01295910  0.90877662    -0.24200
H2008       H  0.58255753  0.98834892  0.85643914     0.14700
H2009       H  0.66755168  0.08397679  0.92322210     0.14800
C2010       C  0.68138451  0.05992873  0.86964829    -0.24200
H2011       H  0.55111826  0.99372566  0.88987389     0.05000
H2012       H  0.55604921  0.04066449  0.91321941     0.08200
H2013       H  0.57666375  0.99474863  0.93091093     0.08200
H2014       H  0.67378651  0.07479896  0.84594169     0.08200
H2015       H  0.69551129  0.03208112  0.86838299     0.08200
H2016       H  0.69769288  0.08184098  0.88739061     0.05000
C2017       C  0.60830543  0.98582768  0.61825895    -0.20800
C2018       C  0.63817802  0.99646449  0.61386691    -0.07400
C2019       C  0.66722682  0.99189184  0.63954267     0.13500
C2020       C  0.66569773  0.97737063  0.66897303    -0.20900
C2021       C  0.63573049  0.96962078  0.67428467    -0.07400
C2022       C  0.60660160  0.97378983  0.64843595     0.13500
C2023       C  0.57377897  0.96598398  0.65250768    -0.24200
H2024       H  0.58612058  0.98913026  0.59851010     0.14700
H2025       H  0.68814816  0.97417054  0.68857931     0.14800
C2026       C  0.69989731  0.00285318  0.63609480    -0.24200
H2027       H  0.55370039  0.96945818  0.62960948     0.05000
H2028       H  0.56985253  0.98834541  0.67024482     0.08200
H2029       H  0.57238676  0.93427347  0.66091797     0.08200
H2030       H  0.70124391  0.03609322  0.63139543     0.08200
H2031       H  0.70347302  0.98470823  0.61587604     0.08200
H2032       H  0.72022066  0.99624546  0.65817893     0.05000
C2033       C  0.97971600  0.99112236  0.73070361    -0.20800
C2034       C  0.97784236  0.02348057  0.75195117    -0.07400
C2035       C  0.50319992  0.02776259  0.78122514     0.13500
C2036       C  0.53105936  0.00370862  0.78619968    -0.20900
C2037       C  0.53373091  0.97415555  0.76322937    -0.07400
C2038       C  0.50805991  0.96929463  0.73432278     0.13500
C2039       C  0.51006680  0.93906937  0.70869703    -0.24200
H2040       H  0.95894621  0.98359301  0.71063242     0.14700
H2041       H  0.55130669  0.00883802  0.80776547     0.14800
C2042       C  0.00228492  0.06166862  0.80518461    -0.24200
H2043       H  0.48781717  0.93917686  0.68740472     0.05000
H2044       H  0.51295448  0.90762057  0.71843171     0.08200
H2045       H  0.53128144  0.94697430  0.70070790     0.08200
H2046       H  0.98178251  0.05333342  0.81412998     0.08200
H2047       H  0.99823018  0.09264339  0.79466299     0.08200
H2048       H  0.52225184  0.05545306  0.82917296     0.05000
C2049       C  0.74284920  0.96266353  0.75140066    -0.20800
C2050       C  0.73061787  0.99257703  0.76779304    -0.07400
C2051       C  0.74195869  0.03343656  0.77067145     0.13500
C2052       C  0.76628288  0.04336332  0.75761027    -0.20900
C2053       C  0.77899254  0.01327957  0.74184932    -0.07400
C2054       C  0.76697485  0.97272170  0.73805567     0.13500
C2055       C  0.77874482  0.94073625  0.71923856    -0.24200
H2056       H  0.73273533  0.93163416  0.74815229     0.14700
H2057       H  0.77640164  0.07442876  0.76089413     0.14800
C2058       C  0.72935308  0.06600587  0.78830762    -0.24200
H2059       H  0.76515524  0.91111334  0.71727930     0.05000
H2060       H  0.80491812  0.93479056  0.73112414     0.08200
H2061       H  0.77520575  0.95162655  0.69456336     0.08200
H2062       H  0.73257969  0.05620604  0.81319694     0.08200
H2063       H  0.70318056  0.07118827  0.77576567     0.08200
H2064       H  0.74253813  0.09583147  0.78967757     0.05000
C2065       C  0.50437430  0.62423412  0.60098220    -0.20800
C2066       C  0.97495605  0.61941745  0.60813739    -0.07400
C2067       C  0.97681694  0.61693203  0.64082953     0.13500
C2068       C  0.50770117  0.61959490  0.66498747    -0.20900
C2069       C  0.53718056  0.61983238  0.65752100    -0.07400
C2070       C  0.53521285  0.62316208  0.62482721     0.13500
C2071       C  0.56524717  0.62339907  0.61447726    -0.24200
H2072       H  0.50331118  0.62576955  0.57600452     0.14700
H2073       H  0.50862378  0.61810831  0.68990930     0.14800
C2074       C  0.94657710  0.61570460  0.65083199    -0.24200
H2075       H  0.55912683  0.62518366  0.58799250     0.05000
H2076       H  0.57885476  0.59470111  0.62193584     0.08200
H2077       H  0.58100745  0.65043446  0.62537852     0.08200
H2078       H  0.93255084  0.58672150  0.64220192     0.08200
H2079       H  0.93117926  0.64231840  0.64084146     0.08200
H2080       H  0.95254111  0.61743475  0.67735245     0.05000
C2081       C  0.85559090  0.46743386  0.60295744    -0.20800
C2082       C  0.88582751  0.46813506  0.59731720    -0.07400
C2083       C  0.91230131  0.44780042  0.61857785     0.13500
C2084       C  0.90876540  0.43162528  0.64689357    -0.20900
C2085       C  0.87986182  0.43690205  0.65464587    -0.07400
C2086       C  0.85253383  0.45290668  0.63164778     0.13500
C2087       C  0.82080094  0.45728469  0.63832019    -0.24200
H2088       H  0.83486774  0.48170532  0.58605189     0.14700
H2089       H  0.92972258  0.41893773  0.66460506     0.14800
C2090       C  0.94480384  0.44619461  0.61293528    -0.24200
H2091       H  0.80153296  0.46967544  0.61751816     0.05000
H2092       H  0.82455453  0.47885711  0.65896059     0.08200
H2093       H  0.81233302  0.42691145  0.64402685     0.08200
H2094       H  0.95429760  0.47785043  0.61202921     0.08200
H2095       H  0.94210788  0.42963494  0.58988142     0.08200
H2096       H  0.96301261  0.42989933  0.63236066     0.05000
C2097       C  0.91690342  0.54546281  0.90303497    -0.20800
C2098       C  0.88910706  0.53626321  0.91226933    -0.07400
C2099       C  0.86109048  0.51992439  0.88835135     0.13500
C2100       C  0.86237272  0.51076511  0.85724358    -0.20900
C2101       C  0.89098366  0.51671484  0.84919755    -0.07400
C2102       C  0.91827108  0.53529845  0.87208422     0.13500
C2103       C  0.94910984  0.54316812  0.86400609    -0.24200
H2104       H  0.93846015  0.55867319  0.92061502     0.14700
H2105       H  0.84158304  0.49613474  0.83972806     0.14800
C2106       C  0.82992964  0.51086026  0.89536475    -0.24200
H2107       H  0.96819339  0.55843893  0.88432740     0.05000
H2108       H  0.94396100  0.56342795  0.84299461     0.08200
H2109       H  0.95875421  0.51370066  0.85806203     0.08200
H2110       H  0.82186670  0.53886949  0.90528169     0.08200
H2111       H  0.83385134  0.48563579  0.91267278     0.08200
H2112       H  0.81006011  0.50072130  0.87346385     0.05000
C2113       C  0.77677169  0.51567415  0.52892980    -0.20800
C2114       C  0.79046640  0.51446569  0.50393491    -0.07400
C2115       C  0.77497003  0.47881412  0.97473819     0.13500
C2116       C  0.74885119  0.45288950  0.97518906    -0.20900
C2117       C  0.73403498  0.45723424  0.99903758    -0.07400
C2118       C  0.74900392  0.49147526  0.52741809     0.13500
C2119       C  0.73492995  0.49428845  0.55471076    -0.24200
H2120       H  0.78825968  0.53485894  0.55002549     0.14700
H2121       H  0.73812658  0.43157580  0.95527226     0.14800
C2122       C  0.78808360  0.47453474  0.94691809    -0.24200
H2123       H  0.75015143  0.51435542  0.57471292     0.05000
H2124       H  0.73355489  0.46322055  0.56426744     0.08200
H2125       H  0.71023392  0.50732671  0.54643588     0.08200
H2126       H  0.81352750  0.46391625  0.95524706     0.08200
H2127       H  0.78691314  0.50459400  0.93515349     0.08200
H2128       H  0.77375443  0.45173971  0.92858558     0.05000
C2129       C  0.54436986  0.51303510  0.01769183    -0.20800
C2130       C  0.53869685  0.50108387  0.98544403    -0.07400
C2131       C  0.50622456  0.49782905  0.46399816     0.13500
C2132       C  0.48121075  0.50110282  0.47726693    -0.20900
C2133       C  0.98800974  0.51199643  0.50874236    -0.07400
C2134       C  0.01755413  0.51834657  0.02907112     0.13500
C2135       C  0.02425670  0.52864676  0.06421799    -0.24200
H2136       H  0.56905592  0.51581587  0.03400801     0.14700
H2137       H  0.45629032  0.49730603  0.46170594     0.14800
C2138       C  0.49820674  0.48891151  0.42844951    -0.24200
H2139       H  0.05078278  0.53045026  0.07741420     0.05000
H2140       H  0.01316554  0.50462094  0.07533495     0.08200
H2141       H  0.01394459  0.55879247  0.06714767     0.08200
H2142       H  0.47151905  0.48687636  0.41625365     0.08200
H2143       H  0.50832323  0.45928453  0.42388375     0.08200
H2144       H  0.50843552  0.51382737  0.41737822     0.05000
C2145       C  0.71739841  0.88391107  0.89046065    -0.20800
C2146       C  0.71785008  0.87817250  0.85888639    -0.07400
C2147       C  0.74834684  0.87025255  0.85410504     0.13500
C2148       C  0.77717107  0.87118612  0.88058036    -0.20900
C2149       C  0.77691669  0.87937398  0.91198512    -0.07400
C2150       C  0.74608258  0.88419490  0.91695256     0.13500
C2151       C  0.74247068  0.88945565  0.94991404    -0.24200
H2152       H  0.69432007  0.88906912  0.89448860     0.14700
H2153       H  0.80033061  0.86683620  0.87647452     0.14800
C2154       C  0.75143481  0.86194869  0.82127879    -0.24200
H2155       H  0.71652911  0.88954923  0.94896996     0.05000
H2156       H  0.75339640  0.91915113  0.96118001     0.08200
H2157       H  0.75422571  0.86368852  0.96525622     0.08200
H2158       H  0.74331403  0.88878806  0.80584466     0.08200
H2159       H  0.73674960  0.83420894  0.81009848     0.08200
H2160       H  0.77700188  0.85619812  0.82241028     0.05000
C2161       C  0.88782742  0.72766513  0.53234029    -0.20800
C2162       C  0.88284163  0.70177037  0.50512330    -0.07400
C2163       C  0.86913439  0.71741147  0.96970816     0.13500
C2164       C  0.87369035  0.76008206  0.96763217    -0.20900
C2165       C  0.88422042  0.78562082  0.99518060    -0.07400
C2166       C  0.89147744  0.77047413  0.53079150     0.13500
C2167       C  0.89685245  0.79664936  0.56078701    -0.24200
H2168       H  0.88933745  0.71436795  0.55516665     0.14700
H2169       H  0.86755452  0.77394034  0.94423543     0.14800
C2170       C  0.85607084  0.69204754  0.93912233    -0.24200
H2171       H  0.89856665  0.77771455  0.58201833     0.05000
H2172       H  0.88091132  0.81661273  0.05562932     0.08200
H2173       H  0.91992543  0.81472819  0.56581586     0.08200
H2174       H  0.83366274  0.67505711  0.93912923     0.08200
H2175       H  0.89807225  0.67443393  0.44748328     0.08200
H2176       H  0.84974835  0.71151844  0.91759197     0.05000
C2177       C  0.99011309  0.99596580  0.02820774    -0.20800
C2178       C  0.97670864  0.97146203  0.99987417    -0.07400
C2179       C  0.49144986  0.98153762  0.47815206     0.13500
C2180       C  0.52037911  0.00549446  0.48443661    -0.20900
C2181       C  0.53417745  0.02885959  0.51330855    -0.07400
C2182       C  0.51736681  0.02811824  0.53619651     0.13500
C2183       C  0.52896704  0.05351823  0.56686944    -0.24200
H2184       H  0.97769256  0.99696771  0.04606493     0.14700
H2185       H  0.53246256  0.00563779  0.46627306     0.14800
C2186       C  0.47841069  0.95893355  0.44630655    -0.27400
H2187       H  0.01518540  0.04036648  0.08048332     0.05000
H2188       H  0.53483434  0.07033404  0.06549516     0.08200
H2189       H  0.55366863  0.04441797  0.58142323     0.08200
H2190       H  0.45495579  0.95821076  0.93161040     0.08200
H2191       H  0.47699408  0.92546522  0.45017920     0.08200
H2192       H  0.49419915  0.96360848  0.43099329     0.05000
C2193       C  0.72806880  0.00601790  0.47918136    -0.20800
C2194       C  0.72255806  0.00419960  0.50909215    -0.07400
C2195       C  0.75500481  0.00466886  0.03809097     0.13500
C2196       C  0.78599005  0.00372121  0.03483232    -0.20900
C2197       C  0.79027929  0.00282479  0.00435550    -0.07400
C2198       C  0.75928318  0.00296003  0.47675411     0.13500
C2199       C  0.76411009  0.00528088  0.44426886    -0.24200
H2200       H  0.70786914  0.01172608  0.45773008     0.14700
H2201       H  0.80703101  0.00096762  0.05613481     0.14800
C2202       C  0.75134767  0.00545454  0.07112155    -0.24200
H2203       H  0.74076250  0.00983029  0.42487130     0.05000
H2204       H  0.77478758  0.97645061  0.43862229     0.08200
H2205       H  0.78070498  0.03154440  0.44420985     0.08200
H2206       H  0.73710815  0.97798113  0.07389847     0.08200
H2207       H  0.73859514  0.03351635  0.07475006     0.08200
H2208       H  0.77532551  0.00537454  0.09023708     0.05000
C2209       C  0.86057707  0.93743096  0.60515886    -0.20800
C2210       C  0.88859162  0.94545958  0.59628791    -0.07400
C2211       C  0.91502547  0.96729260  0.61746072     0.13500
C2212       C  0.91205186  0.98342906  0.64603762    -0.20900
C2213       C  0.88308334  0.97857858  0.65405806    -0.07400
C2214       C  0.85735278  0.95410130  0.63381309     0.13500
C2215       C  0.82568717  0.94840566  0.64079158    -0.24200
H2216       H  0.84010382  0.92116622  0.58834020     0.14700
H2217       H  0.93169595  0.00243072  0.66090128     0.14800
C2218       C  0.94590665  0.97503499  0.60931184    -0.24200
H2219       H  0.80779871  0.92960865  0.62173640     0.05000
H2220       H  0.81479041  0.97877033  0.64226583     0.08200
H2221       H  0.83003585  0.93254012  0.66388781     0.08200
H2222       H  0.94075134  0.99357715  0.58737260     0.08200
H2223       H  0.95626453  0.94525394  0.60508861     0.08200
H2224       H  0.96457733  0.99192773  0.62901313     0.05000
C2225       C  0.84680096  0.03280716  0.84640050    -0.20800
C2226       C  0.87627152  0.03583292  0.83919931    -0.07400
C2227       C  0.90560763  0.02694645  0.86371177     0.13500
C2228       C  0.90442522  0.01371826  0.89382920    -0.20900
C2229       C  0.87474242  0.00754807  0.89992370    -0.07400
C2230       C  0.84566592  0.01824831  0.87610454     0.13500
C2231       C  0.81337436  0.01433206  0.88207240    -0.24200
H2232       H  0.82419187  0.04001624  0.82808821     0.14700
H2233       H  0.92678334  0.00651426  0.91232752     0.14800
C2234       C  0.93823920  0.03146550  0.85846966    -0.24200
H2235       H  0.79302871  0.02480745  0.86133489     0.05000
H2236       H  0.81397530  0.03349516  0.90342418     0.08200
H2237       H  0.80834925  0.98181115  0.88640974     0.08200
H2238       H  0.94150448  0.06325370  0.85111922     0.08200
H2239       H  0.93998574  0.00927294  0.83963773     0.08200
H2240       H  0.95859468  0.02534042  0.88064843     0.05000
loop_ 
_geom_bond_atom_site_label_1 
_geom_bond_atom_site_label_2 
_geom_bond_distance 
_geom_bond_site_symmetry_2 
_ccdc_geom_bond_type 
O1          Cr19   2.078       .  S
O1            C9   1.289       .  A
O2          Cr19   1.962       .  S
O2            C3   1.253       .  A
C3            O4   1.269   1_565  A
C3          C549   1.501   1_565  S
O4          Cr20   2.046   1_545  S
O5          Cr20   2.002       .  S
O5            C6   1.263       .  A
C6            O7   1.247       .  A
C6          C517   1.452       .  S
O7          Cr21   1.949       .  S
O8          Cr21   1.946       .  S
O8            C9   1.255       .  A
C9          C469   1.514       .  S
O10         Cr19   2.011       .  S
O10          C18   1.263       .  A
O11         Cr19   2.083       .  S
O11          C12   1.288       .  A
C12          O13   1.256       .  A
C12         C498   1.519       .  S
O13         Cr20   1.949       .  S
O14        Cr580   2.026   1_554  S
O14          C15   1.275       .  A
C15          O16   1.263       .  A
C15         C530   1.471       .  S
O16        Cr581   1.969       .  S
O17        Cr581   1.970   1_556  S
O17         C578   1.253       .  A
C18         O577   1.249       .  A
C18         C485   1.477       .  S
Cr19         O22   1.767       .  S
Cr20        O574   2.027       .  S
Cr20         O22   1.773       .  S
Cr21        O576   1.967       .  S
Cr21        O577   1.966       .  S
Cr21         O22   1.774       .  S
O23         Cr41   2.005       .  S
O23          C31   1.262       .  A
O24         Cr41   1.947       .  S
O24          C25   1.248       .  A
C25          O26   1.255       .  A
C25         C453   1.438       .  S
O26         Cr42   1.965       .  S
O27         Cr42   2.013       .  S
O27          C28   1.268       .  A
C28          O29   1.259       .  A
C28         C402   1.487       .  S
O29         Cr43   1.971       .  S
O30         Cr43   2.016       .  S
O30          C31   1.267       .  A
C31         C386   1.510       .  S
O32        Cr601   1.956       .  S
O32         C600   1.254       .  A
O33        Cr601   2.026       .  S
O33          C34   1.269       .  A
C34          O35   1.269       .  A
C34         C418   1.517       .  S
O35        Cr602   2.007       .  S
O36         Cr42   1.956       .  S
O36          C37   1.255       .  A
C37          O38   1.282       .  A
C37         C434   1.488       .  S
O38         Cr43   2.030       .  S
O39         Cr43   2.031       .  S
O39          C40   1.271       .  A
C40         O592   1.255   1_554  A
C40         C482   1.489       .  S
Cr41        O592   1.961   1_554  S
Cr41        O593   2.011   1_554  S
Cr41         O44   1.776       .  S
Cr42        O595   2.004   1_554  S
Cr42         O44   1.779       .  S
Cr43         O44   1.772       .  S
O45         Cr63   2.030       .  S
O45          C53   1.270       .  A
O46         Cr63   1.977       .  S
O46          C47   1.261       .  A
C47          O48   1.268   1_565  A
C47         C322   1.491   1_565  S
O48         Cr64   2.007   1_545  S
O49         Cr64   1.973   1_545  S
O49          C50   1.255   1_545  A
C50          O51   1.244       .  A
C50         C370   1.437       .  S
O51         Cr65   1.945       .  S
O52         Cr65   1.993       .  S
O52          C53   1.255       .  A
C53         C466   1.511       .  S
O54         Cr63   2.026       .  S
O54          C62   1.272       .  A
O55         Cr63   2.030       .  S
O55          C56   1.281       .  A
C56          O57   1.255       .  A
C56         C357   1.487       .  S
O57         Cr64   1.948       .  S
O58         Cr64   2.000       .  S
O58          C59   1.266       .  A
C59          O60   1.267       .  A
C59         C341   1.489       .  S
O60         Cr65   2.014       .  S
O61         Cr65   1.964       .  S
O61          C62   1.259       .  A
C62         C306   1.501       .  S
Cr63         O66   1.761       .  S
Cr64         O66   1.778       .  S
Cr65         O66   1.771       .  S
O67         Cr85   1.968       .  S
O67          C75   1.262       .  A
O68         Cr85   1.943       .  S
O68          C69   1.247       .  A
C69          O70   1.261       .  A
C69         C261   1.439       .  S
O70         Cr86   1.997       .  S
O71         Cr86   2.035       .  S
O71          C72   1.265       .  A
C72          O73   1.248       .  A
C72         C290   1.483       .  S
O73         Cr87   1.952       .  S
O74         Cr87   2.070       .  S
O74          C75   1.285       .  A
C75         C389   1.519       .  S
O76         Cr85   1.962       .  S
O76          C84   1.253       .  A
O77         Cr85   1.984       .  S
O77          C78   1.268       .  A
C78          O79   1.274       .  A
C78         C277   1.477       .  S
O79         Cr86   2.017       .  S
O80         Cr86   1.947       .  S
O80          C81   1.252       .  A
C81          O82   1.290       .  A
C81         C242   1.517       .  S
O82         Cr87   2.092       .  S
O83         Cr87   2.009       .  S
O83          C84   1.265       .  A
C84         C309   1.482       .  S
Cr85         O88   1.767       .  S
Cr86         O88   1.775       .  S
Cr87         O88   1.766       .  S
O89        Cr107   2.064       .  S
O89          C97   1.283       .  A
O90        Cr107   1.965       .  S
O90          C91   1.251       .  A
C91          O92   1.269       .  A
C91         C421   1.487       .  S
O92        Cr108   2.043       .  S
O93        Cr108   1.996       .  S
O93          C94   1.261       .  A
C94          O95   1.249       .  A
C94         C258   1.445       .  S
O95        Cr109   1.957       .  S
O96        Cr109   1.960       .  S
O96          C97   1.257       .  A
C97         C210   1.511       .  S
O98        Cr107   2.008       .  S
O98         C106   1.265       .  A
O99        Cr107   2.087       .  S
O99         C100   1.288       .  A
C100        O101   1.256       .  A
C100        C245   1.523       .  S
O101       Cr108   1.957       .  S
O102       Cr108   2.034       .  S
O102        C103   1.277       .  A
C103        O104   1.266       .  A
C103        C405   1.482       .  S
O104       Cr109   1.976       .  S
O105       Cr109   1.968       .  S
O105        C106   1.254       .  A
C106        C229   1.478       .  S
Cr107       O110   1.774       .  S
Cr108       O110   1.773       .  S
Cr109       O110   1.773       .  S
O111       Cr129   2.000       .  S
O111        C119   1.259       .  A
O112       Cr129   1.940       .  S
O112        C113   1.243       .  A
C113        O114   1.251       .  A
C113        C373   1.435       .  S
O114       Cr130   1.971       .  S
O115       Cr130   2.004   1_565  S
O115        C116   1.266   1_565  A
C116        O117   1.261       .  A
C116        C533   1.484   1_545  S
O117       Cr131   1.982       .  S
O118       Cr131   2.021       .  S
O118        C119   1.269       .  A
C119        C194   1.508       .  S
O120       Cr129   1.968       .  S
O120        C128   1.261       .  A
O121       Cr129   2.029       .  S
O121        C122   1.270       .  A
C122        O123   1.268       .  A
C122        C546   1.511       .  S
O123       Cr130   1.996       .  S
O124       Cr130   1.955       .  S
O124        C125   1.257       .  A
C125        O126   1.279       .  A
C125        C354   1.483       .  S
O126       Cr131   2.025       .  S
O127       Cr131   2.020       .  S
O127        C128   1.270       .  A
C128        C226   1.500       .  S
Cr129       O132   1.774       .  S
Cr130       O132   1.781       .  S
Cr131       O132   1.769       .  S
O133       Cr151   1.945       .  S
O133        C141   1.255       .  A
O134       Cr151   1.948   1_556  S
O134        C135   1.247   1_556  A
C135        O136   1.261       .  A
C135        C514   1.448       .  S
O136       Cr152   1.999       .  S
O137       Cr152   2.035   1_565  S
O137        C138   1.267   1_565  A
C138        O139   1.252       .  A
C138        C338   1.486   1_545  S
O139       Cr153   1.961       .  S
O140       Cr153   2.069       .  S
O140        C141   1.286       .  A
C141        C197   1.508       .  S
O142       Cr711   1.969       .  S
O142        C710   1.254       .  A
O143       Cr711   1.976       .  S
O143        C144   1.265       .  A
C144        O145   1.272       .  A
C144        C325   1.473       .  S
O145       Cr712   2.015       .  S
O146       Cr152   1.951       .  S
O146        C147   1.256       .  A
C147        O148   1.286       .  A
C147        C501   1.517       .  S
O148       Cr153   2.075       .  S
O149       Cr153   2.007       .  S
O149        C150   1.262       .  A
C150        O702   1.251       .  A
C150        C178   1.473       .  S
Cr151       O702   1.962       .  S
Cr151       O703   1.969   1_554  S
Cr151       O154   1.772       .  S
Cr152       O705   2.024   1_554  S
Cr152       O154   1.771       .  S
Cr153       O154   1.768       .  S
O155       Cr173   2.031       .  S
O155        C163   1.270       .  A
O156       Cr173   1.995       .  S
O156        C157   1.262       .  A
C157        O158   1.266       .  A
C157        C274   1.494       .  S
O158       Cr174   2.000       .  S
O159       Cr174   1.960       .  S
O159        C160   1.253       .  A
C160        O161   1.248       .  A
C160        C450   1.437       .  S
O161       Cr175   1.949       .  S
O162       Cr175   1.994       .  S
O162        C163   1.256       .  A
C163        C213   1.512       .  S
O164       Cr173   2.030       .  S
O164        C172   1.272       .  A
O165       Cr173   2.030       .  S
O165        C166   1.279       .  A
C166        O167   1.254       .  A
C166        C437   1.479       .  S
O167       Cr174   1.950       .  S
O168       Cr734   1.986   1_554  S
O168        C169   1.265       .  A
C169        O170   1.264       .  A
C169        C293   1.487       .  S
O170       Cr735   2.006   1_554  S
O171       Cr735   1.962   1_554  S
O171        C732   1.258   1_554  A
C172        O731   1.257       .  A
C172        C741   1.495       .  S
Cr173       O176   1.764       .  S
Cr174       O728   1.993       .  S
Cr174       O176   1.775       .  S
Cr175       O730   2.006       .  S
Cr175       O731   1.962       .  S
Cr175       O176   1.773       .  S
C177        C182   1.403       .  A
C177        C738   1.401       .  A
C177        H184   1.085       .  S
C178        C179   1.409       .  A
C178        C737   1.401   1_554  A
C179        C180   1.408       .  A
C179        C186   1.506       .  S
C180        C181   1.412   1_554  A
C180        H185   1.085       .  S
C181        C732   1.496       .  S
C181        C742   1.423       .  A
C182        C741   1.421       .  A
C182        C183   1.509       .  S
C183        H187   1.111       .  S
C183        H188   1.110       .  S
C183        H189   1.110       .  S
C186        H190   1.110       .  S
C186        H191   1.110       .  S
C186        H192   1.111       .  S
C193        C194   1.401       .  A
C193        C198   1.410       .  A
C193        H200   1.084       .  S
C194        C195   1.429       .  A
C195        C196   1.414       .  A
C195        C202   1.508       .  S
C196        C197   1.402       .  A
C196        H201   1.084       .  S
C197        C198   1.430       .  A
C198        C199   1.511       .  S
C199        H203   1.111       .  S
C199        H204   1.110       .  S
C199        H205   1.108       .  S
C202        H206   1.110       .  S
C202        H207   1.105       .  S
C202        H208   1.111       .  S
C209        C210   1.403       .  A
C209       C1334   1.414       .  A
C209        H216   1.083       .  S
C210       C1331   1.429       .  A
C211        C212   1.412       .  A
C211       C1330   1.428   1_455  A
C211        C218   1.509       .  S
C212        C213   1.403       .  A
C212        H217   1.084       .  S
C213        C214   1.430       .  A
C214       C1329   1.415   1_455  A
C214       C1335   1.510       .  S
C215       C1334   1.510       .  S
C215        H219   1.111       .  S
C215       H1340   1.108       .  S
C215       H1341   1.110       .  S
C218        H222   1.103       .  S
C218        H223   1.110       .  S
C218        H224   1.111       .  S
H220       C1335   1.108       .  S
H221       C1335   1.110       .  S
C225        C226   1.412       .  A
C225        C230   1.411       .  A
C225        H232   1.084       .  S
C226        C227   1.426       .  A
C227        C228   1.403       .  A
C227        C234   1.510       .  S
C228        C229   1.400       .  A
C228        H233   1.085       .  S
C229        C230   1.411       .  A
C230        C231   1.505       .  S
C231        H235   1.111       .  S
C231        H236   1.110       .  S
C231        H237   1.110       .  S
C234        H238   1.110       .  S
C234        H239   1.110       .  S
C234        H240   1.111       .  S
C241        C242   1.398       .  A
C241        C246   1.412       .  A
C241        H248   1.095       .  S
C242        C243   1.433       .  A
C243        C244   1.419       .  A
C243        C250   1.509       .  S
C244        C245   1.404       .  A
C244        H249   1.086       .  S
C245        C246   1.431       .  A
C246        C247   1.500       .  S
C247        H251   1.112       .  S
C247        H252   1.110       .  S
C247        H253   1.106       .  S
C250        H254   1.109       .  S
C250        H255   1.110       .  S
C250        H256   1.111       .  S
C257        C262   1.395       .  A
C257       C1378   1.396   1_455  A
C257        H264   1.086       .  S
C258        C259   1.413       .  A
C258       C1377   1.395       .  A
C259       C1380   1.397       .  A
C259        C266   1.506       .  S
C260        C261   1.397       .  A
C260       C1379   1.396   1_455  A
C260        H265   1.086       .  S
C261        C262   1.412       .  A
C262        C263   1.510       .  S
C263        H267   1.111       .  S
C263        H268   1.108       .  S
C263        H269   1.110       .  S
C266        H270   1.110       .  S
C266        H271   1.106       .  S
C266        H272   1.110       .  S
C273        C274   1.406       .  A
C273        C278   1.410       .  A
C273        H280   1.085       .  S
C274        C275   1.424       .  A
C275        C276   1.401       .  A
C275        C282   1.507       .  S
C276        C277   1.396       .  A
C276        H281   1.086       .  S
C277        C278   1.415       .  A
C278        C279   1.506       .  S
C279        H283   1.111       .  S
C279        H284   1.109       .  S
C279        H285   1.110       .  S
C282        H286   1.109       .  S
C282        H287   1.108       .  S
C282        H288   1.111       .  S
C289        C290   1.402       .  A
C289        C294   1.412       .  A
C289        H296   1.081       .  S
C290        C291   1.420       .  A
C291        C292   1.398       .  A
C291        C298   1.511       .  S
C292        C293   1.399       .  A
C292        H297   1.088       .  S
C293        C294   1.421       .  A
C294        C295   1.507       .  S
C295        H299   1.111       .  S
C295        H300   1.111       .  S
C295        H301   1.109       .  S
C298        H302   1.108       .  S
C298        H303   1.108       .  S
C298        H304   1.111       .  S
C305        C306   1.415       .  A
C305        C310   1.413       .  A
C305        H312   1.083       .  S
C306        C307   1.423       .  A
C307        C308   1.401       .  A
C307        C314   1.510       .  S
C308        C309   1.402       .  A
C308        H313   1.084       .  S
C309        C310   1.410       .  A
C310        C311   1.506       .  S
C311        H315   1.111       .  S
C311        H316   1.111       .  S
C311        H317   1.110       .  S
C314        H318   1.110       .  S
C314        H319   1.110       .  S
C314        H320   1.111       .  S
C321        C322   1.412       .  A
C321        C326   1.398       .  A
C321        H328   1.082   1_545  S
C322        C323   1.414       .  A
C323        C324   1.411       .  A
C323        C330   1.505       .  S
C324        C325   1.409       .  A
C324        H329   1.081       .  S
C325        C326   1.406       .  A
C326        C327   1.510       .  S
C327        H331   1.111       .  S
C327        H332   1.110       .  S
C327        H333   1.109       .  S
C330        H334   1.110       .  S
C330        H335   1.110       .  S
C330        H336   1.110       .  S
C337        C338   1.407       .  A
C337        C342   1.413       .  A
C337        H344   1.083       .  S
C338        C339   1.414       .  A
C339        C340   1.405       .  A
C339        C346   1.508   1_565  S
C340        C341   1.405       .  A
C340        H345   1.086       .  S
C341        C342   1.416       .  A
C342        C343   1.507       .  S
C343        H347   1.111       .  S
C343        H348   1.110       .  S
C343        H349   1.110       .  S
C346        H350   1.109       .  S
C346        H351   1.110   1_545  S
C346        H352   1.111       .  S
C353        C354   1.417   1_565  A
C353       C1478   1.406       .  A
C353        H360   1.079       .  S
C354       C1475   1.402       .  A
C355        C356   1.407       .  A
C355       C1474   1.402   1_455  A
C355       C1482   1.506       .  S
C356        C357   1.422   1_545  A
C356        H361   1.077       .  S
C357        C358   1.402       .  A
C358       C1473   1.404   1_455  A
C358        C359   1.505       .  S
C359        H363   1.110   1_455  S
C359        H364   1.110       .  S
C359        H365   1.111       .  S
C362       C1475   1.506       .  S
C362        H366   1.111       .  S
C362        H367   1.111       .  S
C362       H1488   1.110       .  S
H368       C1482   1.110       .  S
C369        C370   1.406       .  A
C369        C374   1.386       .  A
C369        H376   1.084       .  S
C370        C371   1.403   1_565  A
C371        C372   1.385       .  A
C371        C378   1.509       .  S
C372        C373   1.404       .  A
C372        H377   1.085       .  S
C373        C374   1.401   1_545  A
C374        C375   1.508       .  S
C375        H379   1.111       .  S
C375        H380   1.109       .  S
C375        H381   1.111       .  S
C378        H382   1.110       .  S
C378        H383   1.109       .  S
C378        H384   1.111       .  S
C385        C390   1.418   1_655  A
C385       C1506   1.413       .  A
C385        H392   1.084       .  S
C386        C387   1.414       .  A
C386       C1505   1.413       .  A
C387       C1508   1.412       .  A
C387        C394   1.507       .  S
C388        C389   1.417       .  A
C388       C1507   1.414   1_455  A
C388        H393   1.085       .  S
C389        C390   1.419       .  A
C390        C391   1.506       .  S
C391        H395   1.111       .  S
C391        H396   1.110       .  S
C391        H397   1.110       .  S
C394        H398   1.108       .  S
C394        H399   1.110       .  S
C394        H400   1.111       .  S
C401        C402   1.408       .  A
C401        C406   1.397       .  A
C401        H408   1.084       .  S
C402        C403   1.412       .  A
C403        C404   1.413       .  A
C403        C410   1.504       .  S
C404        C405   1.410       .  A
C404        H409   1.084       .  S
C405        C406   1.406       .  A
C406        C407   1.499       .  S
C407        H411   1.111       .  S
C407        H412   1.104       .  S
C407        H413   1.110       .  S
C410        H414   1.111       .  S
C410        H415   1.110       .  S
C410        H416   1.111       .  S
C417        C418   1.416       .  A
C417        C422   1.416       .  A
C417        H424   1.085       .  S
C418        C419   1.422       .  A
C419        C420   1.409       .  A
C419        C426   1.498       .  S
C420        C421   1.400       .  A
C420        H425   1.083       .  S
C421        C422   1.409       .  A
C422        C423   1.505       .  S
C423        H427   1.111       .  S
C423        H428   1.110       .  S
C423        H429   1.110       .  S
C426        H430   1.110       .  S
C426        H431   1.106       .  S
C426        H432   1.111       .  S
C433        C434   1.399       .  A
C433        C438   1.408       .  A
C433        H440   1.083       .  S
C434        C995   1.426   1_554  A
C435        C436   1.404       .  A
C435        C994   1.423       .  A
C435        C442   1.500       .  S
C436        C437   1.394       .  A
C436        H441   1.085       .  S
C437        C998   1.422       .  A
C438        C997   1.423       .  A
C438        C439   1.509       .  S
C439        H443   1.111       .  S
C439        H444   1.110       .  S
C439        H445   1.108       .  S
C442        H446   1.106       .  S
C442        H447   1.109       .  S
C442        H448   1.111       .  S
C449        C450   1.405       .  A
C449       C1574   1.386       .  A
C449        H456   1.084       .  S
C450       C1011   1.403       .  A
C451        C452   1.385   1_455  A
C451       C1010   1.404       .  A
C451        C458   1.510   1_455  S
C452       C1573   1.403   1_556  A
C452        H457   1.085       .  S
C453       C1572   1.403   1_554  A
C453       C1014   1.403       .  A
C454       C1569   1.387       .  A
C454       C1013   1.404       .  A
C454        C455   1.508       .  S
C455        H459   1.111       .  S
C455        H460   1.110       .  S
C455        H461   1.104       .  S
C458        H462   1.110       .  S
C458        H463   1.105   1_655  S
C458        H464   1.110   1_655  S
C465        C466   1.401       .  A
C465        C470   1.411       .  A
C465        H472   1.084       .  S
C466        C467   1.430       .  A
C467        C468   1.415       .  A
C467        C474   1.508       .  S
C468        C469   1.403       .  A
C468        H473   1.083       .  S
C469        C470   1.433       .  A
C470        C471   1.512       .  S
C471        H475   1.111       .  S
C471        H476   1.105       .  S
C471        H477   1.110       .  S
C474        H478   1.107       .  S
C474        H479   1.110       .  S
C474        H480   1.111       .  S
C481        C482   1.407       .  A
C481        C486   1.406       .  A
C481        H488   1.083       .  S
C482       C1043   1.418   1_554  A
C483        C484   1.409       .  A
C483       C1042   1.423       .  A
C483        C490   1.508       .  S
C484        C485   1.400       .  A
C484        H489   1.085       .  S
C485       C1046   1.413       .  A
C486       C1045   1.412   1_554  A
C486        C487   1.508       .  S
C487        H491   1.111       .  S
C487        H493   1.110       .  S
C487       H1052   1.109       .  S
C490        H494   1.110       .  S
C490        H496   1.111       .  S
C490       H1055   1.109       .  S
H492       C1047   1.109       .  S
H495       C1050   1.109       .  S
C497        C498   1.421   1_545  A
C497       C2182   1.418       .  A
C497        H504   1.082       .  S
C498       C2179   1.414       .  A
C499        C500   1.417   1_655  A
C499       C2178   1.415       .  A
C499        C506   1.507       .  S
C500        C501   1.420   1_566  A
C500        H505   1.084       .  S
C501        C502   1.414       .  A
C502       C2177   1.413   1_445  A
C502        C503   1.507       .  S
C503        H509   1.108       .  S
C503       H2187   1.111       .  S
C503       H1068   1.110       .  S
C506        H511   1.110       .  S
C506        H512   1.111       .  S
C506       H1070   1.105       .  S
H507       C2183   1.111       .  S
H508       C1063   1.110       .  S
H510       C1066   1.107       .  S
C513        C514   1.408   1_556  A
C513        C518   1.393       .  A
C513        H520   1.085       .  S
C514       C1075   1.404       .  A
C515        C516   1.393       .  A
C515       C1074   1.403       .  A
C515        C522   1.508       .  S
C516        C517   1.410       .  A
C516        H521   1.087       .  S
C517       C1078   1.404       .  A
C518       C1077   1.403   1_556  A
C518        C519   1.508   1_545  S
C519        H523   1.111   1_565  S
C519        H524   1.109       .  S
C519        H525   1.110   1_565  S
C522        H526   1.110       .  S
C522        H527   1.110   1_565  S
C522        H528   1.111       .  S
C529        C530   1.409       .  A
C529        C534   1.410       .  A
C529        H536   1.086       .  S
C530        C531   1.403       .  A
C531        C532   1.399       .  A
C531        C538   1.507       .  S
C532        C533   1.410       .  A
C532        H537   1.082       .  S
C533        C534   1.412       .  A
C534        C535   1.506       .  S
C535        H539   1.111       .  S
C535        H540   1.110       .  S
C535        H541   1.110       .  S
C538        H542   1.110       .  S
C538        H543   1.111       .  S
C538        H544   1.111       .  S
C545        C546   1.417       .  A
C545        C550   1.420       .  A
C545        H552   1.083       .  S
C546        C547   1.421   1_545  A
C547        C548   1.407       .  A
C547        C554   1.509       .  S
C548        C549   1.407   1_565  A
C548        H553   1.085       .  S
C549        C550   1.412       .  A
C550        C551   1.504       .  S
C551        H555   1.111       .  S
C551        H556   1.110       .  S
C551        H557   1.111       .  S
C554        H558   1.110       .  S
C554        H559   1.110       .  S
C554        H560   1.111       .  S
O561       Cr579   2.054       .  S
O561        C569   1.282       .  A
O562       Cr579   1.978       .  S
O562        C563   1.255       .  A
C563        O564   1.269       .  A
C563       C1109   1.495   1_565  S
O564       Cr580   2.041       .  S
O565       Cr580   1.991       .  S
O565        C566   1.260   1_556  A
C566        O567   1.250       .  A
C566       C1077   1.445   1_565  S
O567       Cr581   1.955       .  S
O568       Cr581   1.947   1_556  S
O568        C569   1.255       .  A
C569       C1029   1.500       .  S
O570       Cr579   2.010       .  S
O570        C578   1.266       .  A
O571       Cr579   2.074       .  S
O571        C572   1.284       .  A
C572        O573   1.255   1_556  A
C572       C1058   1.514   1_556  S
O573       Cr580   1.947   1_554  S
O574        C575   1.277       .  A
C575        O576   1.265       .  A
C575       C1090   1.467       .  S
C578       C1045   1.475       .  S
Cr579       O582   1.769       .  S
Cr580       O582   1.769       .  S
Cr581       O582   1.772   1_554  S
O583       Cr601   2.006       .  S
O583        C591   1.262       .  A
O584       Cr601   1.948       .  S
O584        C585   1.247       .  A
C585        O586   1.255       .  A
C585       C1013   1.441       .  S
O586       Cr602   1.970       .  S
O587       Cr602   2.007       .  S
O587        C588   1.268       .  A
C588        O589   1.262       .  A
C588        C962   1.486       .  S
O589       Cr603   1.981       .  S
O590       Cr603   2.015       .  S
O590        C591   1.265       .  A
C591        C946   1.508       .  S
O593        C594   1.266       .  A
C594        O595   1.268       .  A
C594        C978   1.508       .  S
O596       Cr602   1.959       .  S
O596        C597   1.256       .  A
C597        O598   1.281       .  A
C597        C994   1.489       .  S
O598       Cr603   2.030       .  S
O599       Cr603   2.040       .  S
O599        C600   1.275       .  A
C600       C1042   1.496       .  S
Cr601       O604   1.776       .  S
Cr602       O604   1.777       .  S
Cr603       O604   1.775       .  S
O605       Cr623   2.013       .  S
O605        C613   1.267       .  A
O606       Cr623   1.973       .  S
O606        C607   1.260       .  A
C607        O608   1.268   1_565  A
C607        C882   1.489   1_565  S
O608       Cr624   2.010   1_545  S
O609       Cr624   1.976   1_545  S
O609        C610   1.254   1_545  A
C610        O611   1.244       .  A
C610        C930   1.437       .  S
O611       Cr625   1.941       .  S
O612       Cr625   1.992       .  S
O612        C613   1.256       .  A
C613       C1026   1.500       .  S
O614       Cr623   2.022       .  S
O614        C622   1.270       .  A
O615       Cr623   2.024       .  S
O615        C616   1.279       .  A
C616        O617   1.257       .  A
C616        C917   1.480       .  S
O617       Cr624   1.961       .  S
O618       Cr624   2.003       .  S
O618        C619   1.268       .  A
C619        O620   1.266       .  A
C619        C901   1.491       .  S
O620       Cr625   2.005       .  S
O621       Cr625   1.960       .  S
O621        C622   1.258       .  A
C622        C866   1.499       .  S
Cr623       O626   1.765       .  S
Cr624       O626   1.781       .  S
Cr625       O626   1.772       .  S
O627       Cr645   1.974       .  S
O627        C635   1.262       .  A
O628       Cr645   1.950       .  S
O628        C629   1.248       .  A
C629        O630   1.261       .  A
C629        C821   1.441       .  S
O630       Cr646   1.996       .  S
O631       Cr646   2.042       .  S
O631        C632   1.267       .  A
C632        O633   1.249       .  A
C632        C850   1.484       .  S
O633       Cr647   1.956       .  S
O634       Cr647   2.053       .  S
O634        C635   1.279       .  A
C635        C949   1.513       .  S
O636       Cr645   1.963       .  S
O636        C644   1.255       .  A
O637       Cr645   1.981       .  S
O637        C638   1.267       .  A
C638        O639   1.275       .  A
C638        C837   1.480       .  S
O639       Cr646   2.021       .  S
O640       Cr646   1.961       .  S
O640        C641   1.256       .  A
C641        O642   1.282       .  A
C641        C802   1.496       .  S
O642       Cr647   2.068       .  S
O643       Cr647   2.005       .  S
O643        C644   1.265       .  A
C644        C869   1.479       .  S
Cr645       O648   1.767       .  S
Cr646       O648   1.775       .  S
Cr647       O648   1.767       .  S
O649       Cr667   2.048       .  S
O649        C657   1.278       .  A
O650       Cr667   1.961       .  S
O650        C651   1.250       .  A
C651        O652   1.268       .  A
C651        C981   1.480       .  S
O652       Cr668   2.039       .  S
O653       Cr668   1.996       .  S
O653        C654   1.262       .  A
C654        O655   1.249       .  A
C654        C818   1.444       .  S
O655       Cr669   1.957       .  S
O656       Cr669   1.968       .  S
O656        C657   1.259       .  A
C657        C770   1.505       .  S
O658       Cr667   1.998       .  S
O658        C666   1.264       .  A
O659       Cr667   2.069       .  S
O659        C660   1.282       .  A
C660        O661   1.258       .  A
C660        C805   1.500       .  S
O661       Cr668   1.963       .  S
O662       Cr668   2.025       .  S
O662        C663   1.274       .  A
C663        O664   1.265       .  A
C663        C965   1.477       .  S
O664       Cr669   1.978       .  S
O665       Cr669   1.965       .  S
O665        C666   1.256       .  A
C666        C789   1.473       .  S
Cr667       O670   1.772       .  S
Cr668       O670   1.774       .  S
Cr669       O670   1.770       .  S
O671       Cr689   1.992       .  S
O671        C679   1.255       .  A
O672       Cr689   1.941       .  S
O672        C673   1.242       .  A
C673        O674   1.254       .  A
C673        C933   1.434       .  S
O674       Cr690   1.977       .  S
O675       Cr690   2.010   1_565  S
O675        C676   1.267   1_565  A
C676        O677   1.258       .  A
C676       C1093   1.487   1_545  S
O677       Cr691   1.969       .  S
O678       Cr691   2.030       .  S
O678        C679   1.270       .  A
C679        C754   1.510       .  S
O680       Cr689   1.970       .  S
O680        C688   1.262       .  A
O681       Cr689   2.024       .  S
O681        C682   1.270       .  A
C682        O683   1.268       .  A
C682       C1106   1.502       .  S
O683       Cr690   2.003       .  S
O684       Cr690   1.962       .  S
O684        C685   1.258       .  A
C685        O686   1.279       .  A
C685        C914   1.478       .  S
O686       Cr691   2.024       .  S
O687       Cr691   2.008       .  S
O687        C688   1.268       .  A
C688        C786   1.495       .  S
Cr689       O692   1.773       .  S
Cr690       O692   1.780       .  S
Cr691       O692   1.764       .  S
O693       Cr711   1.951       .  S
O693        C701   1.255       .  A
O694       Cr711   1.954       .  S
O694        C695   1.251       .  A
C695        O696   1.262       .  A
C695       C1074   1.450   1_545  S
O696       Cr712   1.994       .  S
O697       Cr712   2.032       .  S
O697        C698   1.266       .  A
C698        O699   1.252       .  A
C698        C898   1.482   1_545  S
O699       Cr713   1.963       .  S
O700       Cr713   2.067       .  S
O700        C701   1.285       .  A
C701        C757   1.513       .  S
O703        C704   1.265       .  A
C704        O705   1.276       .  A
C704        C885   1.470       .  S
O706       Cr712   1.946       .  S
O706        C707   1.255       .  A
C707        O708   1.287       .  A
C707       C1061   1.520       .  S
O708       Cr713   2.087       .  S
O709       Cr713   2.007       .  S
O709        C710   1.264       .  A
C710        C738   1.476       .  S
Cr711       O714   1.768       .  S
Cr712       O714   1.769       .  S
Cr713       O714   1.770       .  S
O715       Cr733   2.020       .  S
O715        C723   1.269       .  A
O716       Cr733   1.993       .  S
O716        C717   1.263       .  A
C717        O718   1.267       .  A
C717        C834   1.493       .  S
O718       Cr734   1.999       .  S
O719       Cr734   1.968       .  S
O719        C720   1.253       .  A
C720        O721   1.248       .  A
C720       C1010   1.439       .  S
O721       Cr735   1.946       .  S
O722       Cr735   1.994       .  S
O722        C723   1.257       .  A
C723        C773   1.505       .  S
O724       Cr733   2.025       .  S
O724        C732   1.271       .  A
O725       Cr733   2.030       .  S
O725        C726   1.278       .  A
C726        O727   1.253       .  A
C726        C997   1.479   1_556  S
O727       Cr734   1.948       .  S
O728        C729   1.267       .  A
C729        O730   1.263       .  A
C729        C853   1.494       .  S
Cr733       O736   1.762       .  S
Cr734       O736   1.778       .  S
Cr735       O736   1.771       .  S
C737        C742   1.403       .  A
C737        H744   1.086       .  S
C738        C739   1.410       .  A
C739        C740   1.410       .  A
C739        C746   1.506       .  S
C740        C741   1.412       .  A
C740        H745   1.084       .  S
C742        C743   1.510       .  S
C743        H747   1.111       .  S
C743        H748   1.110       .  S
C743        H749   1.110       .  S
C746        H750   1.110       .  S
C746        H751   1.110       .  S
C746        H752   1.111       .  S
C753        C754   1.400       .  A
C753        C758   1.410       .  A
C753        H760   1.083       .  S
C754        C755   1.430       .  A
C755        C756   1.415       .  A
C755        C762   1.509       .  S
C756        C757   1.403       .  A
C756        H761   1.083       .  S
C757        C758   1.432       .  A
C758        C759   1.511       .  S
C759        H763   1.111       .  S
C759        H764   1.110       .  S
C759        H765   1.106       .  S
C762        H766   1.110       .  S
C762        H767   1.107       .  S
C762        H768   1.111       .  S
C769        C770   1.404       .  A
C769       C1894   1.412       .  A
C769        H776   1.082       .  S
C770       C1891   1.425       .  A
C771       C1890   1.426   1_455  A
C771        C772   1.409       .  A
C771        C778   1.510       .  S
C772        C773   1.402       .  A
C772        H777   1.084       .  S
C773        C774   1.428       .  A
C774       C1889   1.411   1_455  A
C774       C1895   1.510       .  S
C775       C1894   1.510       .  S
C775        H779   1.111       .  S
C775       H1900   1.108       .  S
C775       H1901   1.110       .  S
C778        H782   1.105       .  S
C778        H783   1.110       .  S
C778        H784   1.111       .  S
H780       C1895   1.107       .  S
H781       C1895   1.110       .  S
C785        C786   1.411       .  A
C785        C790   1.411       .  A
C785        H792   1.084       .  S
C786        C787   1.427       .  A
C787        C788   1.398       .  A
C787        C794   1.512       .  S
C788        C789   1.397       .  A
C788        H793   1.085       .  S
C789        C790   1.411       .  A
C790        C791   1.505       .  S
C791        H795   1.111       .  S
C791        H796   1.110       .  S
C791        H797   1.110       .  S
C794        H798   1.108       .  S
C794        H799   1.110       .  S
C794        H800   1.111       .  S
C801        C802   1.406       .  A
C801        C806   1.414       .  A
C801        H808   1.082       .  S
C802        C803   1.417       .  A
C803        C804   1.414       .  A
C803        C810   1.507       .  S
C804        C805   1.407       .  A
C804        H809   1.077       .  S
C805        C806   1.417       .  A
C806        C807   1.505       .  S
C807        H811   1.111       .  S
C807        H812   1.110       .  S
C807        H813   1.106       .  S
C810        H814   1.110       .  S
C810        H815   1.111       .  S
C810        H816   1.111       .  S
C817       C1938   1.396   1_455  A
C817        C822   1.395       .  A
C817        H824   1.085       .  S
C818       C1937   1.396       .  A
C818        C819   1.412       .  A
C819       C1940   1.396       .  A
C819        C826   1.506       .  S
C820       C1939   1.395   1_455  A
C820        C821   1.397       .  A
C820        H825   1.085       .  S
C821        C822   1.413       .  A
C822        C823   1.509       .  S
C823        H827   1.111       .  S
C823        H828   1.109       .  S
C823        H829   1.110       .  S
C826        H830   1.110       .  S
C826        H831   1.106       .  S
C826        H832   1.111       .  S
C833        C834   1.406       .  A
C833        C838   1.411       .  A
C833        H840   1.083       .  S
C834        C835   1.424       .  A
C835        C836   1.399       .  A
C835        C842   1.508       .  S
C836        C837   1.396       .  A
C836        H841   1.086       .  S
C837        C838   1.417       .  A
C838        C839   1.506       .  S
C839        H843   1.111       .  S
C839        H844   1.109       .  S
C839        H845   1.110       .  S
C842        H846   1.108       .  S
C842        H847   1.108       .  S
C842        H848   1.111       .  S
C849        C850   1.402       .  A
C849        C854   1.414       .  A
C849        H856   1.087       .  S
C850        C851   1.418       .  A
C851        C852   1.399       .  A
C851        C858   1.510       .  S
C852        C853   1.400       .  A
C852        H857   1.086       .  S
C853        C854   1.425       .  A
C854        C855   1.507       .  S
C855        H859   1.111       .  S
C855        H860   1.111       .  S
C855        H861   1.109       .  S
C858        H862   1.107       .  S
C858        H863   1.108       .  S
C858        H864   1.111       .  S
C865        C866   1.416       .  A
C865        C870   1.411       .  A
C865        H872   1.084       .  S
C866        C867   1.422       .  A
C867        C868   1.399       .  A
C867        C874   1.510       .  S
C868        C869   1.402       .  A
C868        H873   1.086       .  S
C869        C870   1.409       .  A
C870        C871   1.506       .  S
C871        H875   1.111       .  S
C871        H876   1.111       .  S
C871        H877   1.110       .  S
C874        H878   1.110       .  S
C874        H879   1.110       .  S
C874        H880   1.111       .  S
C881        C882   1.412       .  A
C881        C886   1.395       .  A
C881        H888   1.083   1_545  S
C882        C883   1.413       .  A
C883        C884   1.412       .  A
C883        C890   1.506       .  S
C884        C885   1.410       .  A
C884        H889   1.080       .  S
C885        C886   1.402       .  A
C886        C887   1.509       .  S
C887        H891   1.111   1_545  S
C887        H892   1.110       .  S
C887        H893   1.109       .  S
C890        H894   1.110       .  S
C890        H895   1.111       .  S
C890        H896   1.110       .  S
C897        C898   1.406       .  A
C897        C902   1.412       .  A
C897        H904   1.082       .  S
C898        C899   1.411       .  A
C899        C900   1.404       .  A
C899        C906   1.509   1_565  S
C900        C901   1.409       .  A
C900        H905   1.084       .  S
C901        C902   1.415       .  A
C902        C903   1.506       .  S
C903        H907   1.111       .  S
C903        H908   1.110       .  S
C903        H909   1.110       .  S
C906        H910   1.110       .  S
C906        H911   1.109   1_545  S
C906        H912   1.111   1_545  S
C913        C914   1.412   1_565  A
C913       C2038   1.406       .  A
C913        H920   1.070       .  S
C914       C2035   1.405       .  A
C915       C2034   1.405   1_455  A
C915        C916   1.408       .  A
C915       C2042   1.505       .  S
C916        C917   1.415   1_545  A
C916        H921   1.075       .  S
C917        C918   1.402       .  A
C918       C2033   1.407   1_455  A
C918        C919   1.505       .  S
C919        H923   1.110   1_455  S
C919        H924   1.110       .  S
C919        H925   1.111       .  S
C922       C2035   1.506       .  S
C922        H926   1.110       .  S
C922        H927   1.110       .  S
C922       H2048   1.111       .  S
H928       C2042   1.111       .  S
C929        C930   1.406       .  A
C929        C934   1.388       .  A
C929        H936   1.084       .  S
C930        C931   1.401   1_565  A
C931        C932   1.385       .  A
C931        C938   1.508       .  S
C932        C933   1.404       .  A
C932        H937   1.085       .  S
C933        C934   1.400   1_545  A
C934        C935   1.508       .  S
C935        H939   1.111       .  S
C935        H940   1.109       .  S
C935        H941   1.111       .  S
C938        H942   1.111       .  S
C938        H943   1.109       .  S
C938        H944   1.111       .  S
C945       C2066   1.411   1_455  A
C945        C950   1.415       .  A
C945        H952   1.084       .  S
C946       C2065   1.412       .  A
C946        C947   1.415       .  A
C947       C2068   1.413       .  A
C947        C954   1.507       .  S
C948       C2067   1.413   1_455  A
C948        C949   1.414       .  A
C948        H953   1.084       .  S
C949        C950   1.419       .  A
C950        C951   1.507       .  S
C951        H955   1.111       .  S
C951        H956   1.110       .  S
C951        H957   1.110       .  S
C954        H958   1.108       .  S
C954        H959   1.110       .  S
C954        H960   1.111       .  S
C961        C962   1.409       .  A
C961        C966   1.400       .  A
C961        H968   1.084       .  S
C962        C963   1.412       .  A
C963        C964   1.411       .  A
C963        C970   1.505       .  S
C964        C965   1.409       .  A
C964        H969   1.085       .  S
C965        C966   1.406       .  A
C966        C967   1.505       .  S
C967        H971   1.111       .  S
C967        H972   1.109       .  S
C967        H973   1.110       .  S
C970        H974   1.111       .  S
C970        H975   1.110       .  S
C970        H976   1.111       .  S
C977        C978   1.417       .  A
C977        C982   1.412       .  A
C977        H984   1.084       .  S
C978        C979   1.419       .  A
C979        C980   1.406       .  A
C979        C986   1.502       .  S
C980        C981   1.401       .  A
C980        H985   1.081       .  S
C981        C982   1.407       .  A
C982        C983   1.505       .  S
C983        H987   1.111       .  S
C983        H988   1.110       .  S
C983        H989   1.111       .  S
C986        H990   1.110       .  S
C986        H991   1.108       .  S
C986        H992   1.111       .  S
C993        C994   1.402       .  A
C993        C998   1.412       .  A
C993       H1000   1.083       .  S
C995        C996   1.406       .  A
C995       C1002   1.505       .  S
C996        C997   1.394   1_556  A
C996       H1001   1.084       .  S
C998        C999   1.508       .  S
C999       H1003   1.111       .  S
C999       H1004   1.110       .  S
C999       H1005   1.108       .  S
C1002      H1006   1.108       .  S
C1002      H1007   1.108       .  S
C1002      H1008   1.111       .  S
C1009      C1010   1.405   1_554  A
C1009      C2134   1.389       .  A
C1009      H1016   1.084       .  S
C1011      C1012   1.386   1_455  A
C1011      C1018   1.509   1_455  S
C1012      C2133   1.405       .  A
C1012      H1017   1.082       .  S
C1013      C2132   1.405       .  A
C1014      C2129   1.388       .  A
C1014      C1015   1.508       .  S
C1015      H1019   1.111       .  S
C1015      H1020   1.110       .  S
C1015      H1021   1.105       .  S
C1018      H1022   1.110       .  S
C1018      H1023   1.106   1_655  S
C1018      H1024   1.110   1_655  S
C1025      C1026   1.401       .  A
C1025      C1030   1.407       .  A
C1025      H1032   1.084       .  S
C1026      C1027   1.427       .  A
C1027      C1028   1.409       .  A
C1027      C1034   1.509       .  S
C1028      C1029   1.402       .  A
C1028      H1033   1.083       .  S
C1029      C1030   1.428       .  A
C1030      C1031   1.511       .  S
C1031      H1035   1.111       .  S
C1031      H1036   1.108       .  S
C1031      H1037   1.110       .  S
C1034      H1038   1.106       .  S
C1034      H1039   1.110       .  S
C1034      H1040   1.111       .  S
C1041      C1042   1.407       .  A
C1041      C1046   1.406       .  A
C1041      H1048   1.083       .  S
C1043      C1044   1.408       .  A
C1043      C1050   1.507       .  S
C1044      C1045   1.402       .  A
C1044      H1049   1.085       .  S
C1046      C1047   1.508       .  S
C1047      H1051   1.111       .  S
C1047      H1053   1.110       .  S
C1050      H1054   1.110       .  S
C1050      H1056   1.111       .  S
C1057      C1058   1.418       .  A
C1057      C1622   1.412   1_565  A
C1057      H1064   1.083       .  S
C1058      C1619   1.416   1_554  A
C1059      C1618   1.414       .  A
C1059      C1060   1.414   1_665  A
C1059      C1066   1.505       .  S
C1060      C1061   1.420       .  A
C1060      H1065   1.083       .  S
C1061      C1062   1.415       .  A
C1062      C1617   1.418   1_455  A
C1062      C1063   1.507       .  S
C1063      H1627   1.111       .  S
C1063      H1069   1.107       .  S
C1066      H1071   1.110       .  S
C1066      H1072   1.111       .  S
H1067      C1623   1.111       .  S
C1073      C1074   1.409   1_545  A
C1073      C1078   1.395   1_545  A
C1073      H1080   1.085       .  S
C1075      C1076   1.394       .  A
C1075      C1082   1.508       .  S
C1076      C1077   1.407       .  A
C1076      H1081   1.086       .  S
C1078      C1079   1.508       .  S
C1079      H1083   1.111   1_565  S
C1079      H1084   1.109       .  S
C1079      H1085   1.110   1_565  S
C1082      H1086   1.110   1_545  S
C1082      H1087   1.108       .  S
C1082      H1088   1.111       .  S
C1089      C1090   1.409       .  A
C1089      C1094   1.410       .  A
C1089      H1096   1.082       .  S
C1090      C1091   1.401       .  A
C1091      C1092   1.396       .  A
C1091      C1098   1.509       .  S
C1092      C1093   1.413       .  A
C1092      H1097   1.076   1_565  S
C1093      C1094   1.413       .  A
C1094      C1095   1.506       .  S
C1095      H1099   1.111       .  S
C1095      H1100   1.111       .  S
C1095      H1101   1.110       .  S
C1098      H1102   1.109       .  S
C1098      H1103   1.111       .  S
C1098      H1104   1.111       .  S
C1105      C1106   1.410       .  A
C1105      C1110   1.411       .  A
C1105      H1112   1.084       .  S
C1106      C1107   1.418       .  A
C1107      C1108   1.415       .  A
C1107      C1114   1.506       .  S
C1108      C1109   1.406       .  A
C1108      H1113   1.081       .  S
C1109      C1110   1.413       .  A
C1110      C1111   1.507       .  S
C1111      H1115   1.111       .  S
C1111      H1116   1.110       .  S
C1111      H1117   1.110   1_545  S
C1114      H1118   1.110       .  S
C1114      H1119   1.109       .  S
C1114      H1120   1.111       .  S
O1121     Cr1139   2.080       .  S
O1121      C1129   1.290       .  A
O1122     Cr1139   1.964       .  S
O1122      C1123   1.253       .  A
C1123      O1124   1.269   1_565  A
C1123      C1669   1.499   1_565  S
O1124     Cr1140   2.043   1_545  S
O1125     Cr1140   1.996       .  S
O1125      C1126   1.262       .  A
C1126      O1127   1.248       .  A
C1126      C1637   1.453       .  S
O1127     Cr1141   1.953       .  S
O1128     Cr1141   1.944       .  S
O1128      C1129   1.255       .  A
C1129      C1589   1.516       .  S
O1130     Cr1139   2.013       .  S
O1130      C1138   1.263       .  A
O1131     Cr1139   2.086       .  S
O1131      C1132   1.289       .  A
C1132      O1133   1.255       .  A
C1132      C1618   1.521       .  S
O1133     Cr1140   1.947       .  S
O1134     Cr1700   2.026   1_554  S
O1134      C1135   1.274       .  A
C1135      O1136   1.264       .  A
C1135      C1650   1.474       .  S
O1136     Cr1701   1.973       .  S
O1137     Cr1701   1.969   1_556  S
O1137      C1698   1.253       .  A
C1138      O1697   1.250       .  A
C1138      C1605   1.479       .  S
Cr1139     O1142   1.768       .  S
Cr1140     O1694   2.026       .  S
Cr1140     O1142   1.773       .  S
Cr1141     O1696   1.964       .  S
Cr1141     O1697   1.966       .  S
Cr1141     O1142   1.774       .  S
O1143     Cr1161   2.006       .  S
O1143      C1151   1.262       .  A
O1144     Cr1161   1.949       .  S
O1144      C1145   1.248       .  A
C1145      O1146   1.255       .  A
C1145      C1573   1.439       .  S
O1146     Cr1162   1.963       .  S
O1147     Cr1162   2.017       .  S
O1147      C1148   1.269       .  A
C1148      O1149   1.260       .  A
C1148      C1522   1.491       .  S
O1149     Cr1163   1.978       .  S
O1150     Cr1163   2.017       .  S
O1150      C1151   1.267       .  A
C1151      C1506   1.512       .  S
O1152     Cr1721   1.954       .  S
O1152      C1720   1.254       .  A
O1153     Cr1721   2.027       .  S
O1153      C1154   1.269       .  A
C1154      O1155   1.269       .  A
C1154      C1538   1.515       .  S
O1155     Cr1722   2.003       .  S
O1156     Cr1162   1.955       .  S
O1156      C1157   1.255       .  A
C1157      O1158   1.282       .  A
C1157      C1554   1.486   1_554  S
O1158     Cr1163   2.028       .  S
O1159     Cr1163   2.035       .  S
O1159      C1160   1.272       .  A
C1160      O1712   1.255   1_554  A
C1160      C1602   1.491       .  S
Cr1161     O1712   1.963   1_554  S
Cr1161     O1713   2.012   1_554  S
Cr1161     O1164   1.778       .  S
Cr1162     O1715   2.013   1_554  S
Cr1162     O1164   1.780       .  S
Cr1163     O1164   1.775       .  S
O1165     Cr1183   2.031       .  S
O1165      C1173   1.270       .  A
O1166     Cr1183   1.981       .  S
O1166      C1167   1.262       .  A
C1167      O1168   1.268   1_565  A
C1167      C1442   1.492   1_565  S
O1168     Cr1184   2.003   1_545  S
O1169     Cr1184   1.972   1_545  S
O1169      C1170   1.254   1_545  A
C1170      O1171   1.244       .  A
C1170      C1490   1.437       .  S
O1171     Cr1185   1.945       .  S
O1172     Cr1185   1.993       .  S
O1172      C1173   1.255       .  A
C1173      C1586   1.513       .  S
O1174     Cr1183   2.030       .  S
O1174      C1182   1.273       .  A
O1175     Cr1183   2.034       .  S
O1175      C1176   1.282       .  A
C1176      O1177   1.254       .  A
C1176      C1477   1.487       .  S
O1177     Cr1184   1.946       .  S
O1178     Cr1184   2.001       .  S
O1178      C1179   1.266       .  A
C1179      O1180   1.267       .  A
C1179      C1461   1.490       .  S
O1180     Cr1185   2.016       .  S
O1181     Cr1185   1.961       .  S
O1181      C1182   1.258       .  A
C1182      C1426   1.498       .  S
Cr1183     O1186   1.763       .  S
Cr1184     O1186   1.777       .  S
Cr1185     O1186   1.771       .  S
O1187     Cr1205   1.966       .  S
O1187      C1195   1.261       .  A
O1188     Cr1205   1.948       .  S
O1188      C1189   1.248       .  A
C1189      O1190   1.261       .  A
C1189      C1381   1.442       .  S
O1190     Cr1206   1.997       .  S
O1191     Cr1206   2.041       .  S
O1191      C1192   1.267       .  A
C1192      O1193   1.247       .  A
C1192      C1410   1.487       .  S
O1193     Cr1207   1.952       .  S
O1194     Cr1207   2.064       .  S
O1194      C1195   1.283       .  A
C1195      C1509   1.516       .  S
O1196     Cr1205   1.965       .  S
O1196      C1204   1.254       .  A
O1197     Cr1205   1.983       .  S
O1197      C1198   1.268       .  A
C1198      O1199   1.275       .  A
C1198      C1397   1.479       .  S
O1199     Cr1206   2.022       .  S
O1200     Cr1206   1.949       .  S
O1200      C1201   1.253       .  A
C1201      O1202   1.288       .  A
C1201      C1362   1.513       .  S
O1202     Cr1207   2.087       .  S
O1203     Cr1207   2.006       .  S
O1203      C1204   1.265       .  A
C1204      C1429   1.477       .  S
Cr1205     O1208   1.768       .  S
Cr1206     O1208   1.774       .  S
Cr1207     O1208   1.767       .  S
O1209     Cr1227   2.067       .  S
O1209      C1217   1.283       .  A
O1210     Cr1227   1.962       .  S
O1210      C1211   1.251       .  A
C1211      O1212   1.269       .  A
C1211      C1541   1.485       .  S
O1212     Cr1228   2.043       .  S
O1213     Cr1228   1.998       .  S
O1213      C1214   1.260       .  A
C1214      O1215   1.246       .  A
C1214      C1378   1.442       .  S
O1215     Cr1229   1.949       .  S
O1216     Cr1229   1.964       .  S
O1216      C1217   1.258       .  A
C1217      C1330   1.513       .  S
O1218     Cr1227   2.008       .  S
O1218      C1226   1.265       .  A
O1219     Cr1227   2.084       .  S
O1219      C1220   1.287       .  A
C1220      O1221   1.257       .  A
C1220      C1365   1.520       .  S
O1221     Cr1228   1.960       .  S
O1222     Cr1228   2.039       .  S
O1222      C1223   1.278       .  A
C1223      O1224   1.267       .  A
C1223      C1525   1.486       .  S
O1224     Cr1229   1.980       .  S
O1225     Cr1229   1.962       .  S
O1225      C1226   1.254       .  A
C1226      C1349   1.480       .  S
Cr1227     O1230   1.774       .  S
Cr1228     O1230   1.774       .  S
Cr1229     O1230   1.770       .  S
O1231     Cr1249   2.000       .  S
O1231      C1239   1.259       .  A
O1232     Cr1249   1.938       .  S
O1232      C1233   1.242       .  A
C1233      O1234   1.252   1_545  A
C1233      C1493   1.435       .  S
O1234     Cr1250   1.972   1_565  S
O1235     Cr1250   2.009   1_565  S
O1235      C1236   1.267   1_565  A
C1236      O1237   1.259       .  A
C1236      C1653   1.485   1_545  S
O1237     Cr1251   1.979       .  S
O1238     Cr1251   2.019       .  S
O1238      C1239   1.269       .  A
C1239      C1314   1.506       .  S
O1240     Cr1249   1.972       .  S
O1240      C1248   1.262       .  A
O1241     Cr1249   2.029       .  S
O1241      C1242   1.270       .  A
C1242      O1243   1.267       .  A
C1242      C1666   1.513       .  S
O1243     Cr1250   1.997       .  S
O1244     Cr1250   1.954       .  S
O1244      C1245   1.258       .  A
C1245      O1246   1.278       .  A
C1245      C1474   1.483       .  S
O1246     Cr1251   2.021       .  S
O1247     Cr1251   2.010       .  S
O1247      C1248   1.268       .  A
C1248      C1346   1.500       .  S
Cr1249     O1252   1.775       .  S
Cr1250     O1252   1.781       .  S
Cr1251     O1252   1.767       .  S
O1253     Cr1271   1.946       .  S
O1253      C1261   1.257       .  A
O1254     Cr1271   1.944   1_556  S
O1254      C1255   1.243   1_556  A
C1255      O1256   1.261       .  A
C1255      C1634   1.450       .  S
O1256     Cr1272   2.003       .  S
O1257     Cr1272   2.035   1_565  S
O1257      C1258   1.268   1_565  A
C1258      O1259   1.252       .  A
C1258      C1458   1.489   1_545  S
O1259     Cr1273   1.962       .  S
O1260     Cr1273   2.068       .  S
O1260      C1261   1.287       .  A
C1261      C1317   1.506       .  S
O1262     Cr1831   1.964       .  S
O1262      C1830   1.252       .  A
O1263     Cr1831   1.978       .  S
O1263      C1264   1.266       .  A
C1264      O1265   1.272       .  A
C1264      C1445   1.472       .  S
O1265     Cr1832   2.013       .  S
O1266     Cr1272   1.953       .  S
O1266      C1267   1.257       .  A
C1267      O1268   1.284       .  A
C1267      C1621   1.512       .  S
O1268     Cr1273   2.064       .  S
O1269     Cr1273   2.008       .  S
O1269      C1270   1.261       .  A
C1270      O1822   1.248       .  A
C1270      C1298   1.471       .  S
Cr1271     O1822   1.960       .  S
Cr1271     O1823   1.969   1_554  S
Cr1271     O1274   1.775       .  S
Cr1272     O1825   2.027   1_554  S
Cr1272     O1274   1.772       .  S
Cr1273     O1274   1.770       .  S
O1275     Cr1293   2.028       .  S
O1275      C1283   1.270       .  A
O1276     Cr1293   2.001       .  S
O1276      C1277   1.264       .  A
C1277      O1278   1.266       .  A
C1277      C1394   1.495       .  S
O1278     Cr1294   2.000       .  S
O1279     Cr1294   1.967       .  S
O1279      C1280   1.255       .  A
C1280      O1281   1.248       .  A
C1280      C1570   1.439       .  S
O1281     Cr1295   1.948       .  S
O1282     Cr1295   1.993       .  S
O1282      C1283   1.256       .  A
C1283      C1333   1.509       .  S
O1284     Cr1293   2.033       .  S
O1284      C1292   1.273       .  A
O1285     Cr1293   2.027       .  S
O1285      C1286   1.278       .  A
C1286      O1287   1.255       .  A
C1286      C1557   1.478       .  S
O1287     Cr1294   1.954       .  S
O1288     Cr1854   1.988   1_554  S
O1288      C1289   1.265       .  A
C1289      O1290   1.265       .  A
C1289      C1413   1.490       .  S
O1290     Cr1855   2.010   1_554  S
O1291     Cr1855   1.962   1_554  S
O1291      C1852   1.258   1_554  A
C1292      O1851   1.257       .  A
C1292      C1861   1.497       .  S
Cr1293     O1296   1.763       .  S
Cr1294     O1848   1.992       .  S
Cr1294     O1296   1.775       .  S
Cr1295     O1850   2.006       .  S
Cr1295     O1851   1.959       .  S
Cr1295     O1296   1.772       .  S
C1297      C1858   1.402       .  A
C1297      C1302   1.403       .  A
C1297      H1304   1.085       .  S
C1298      C1857   1.400   1_554  A
C1298      C1299   1.409       .  A
C1299      C1300   1.407       .  A
C1299      C1306   1.506       .  S
C1300      C1301   1.410   1_554  A
C1300      H1305   1.085       .  S
C1301      C1852   1.494       .  S
C1301      C1862   1.423       .  A
C1302      C1861   1.421       .  A
C1302      C1303   1.509       .  S
C1303      H1307   1.111       .  S
C1303      H1308   1.110       .  S
C1303      H1309   1.111       .  S
C1306      H1310   1.110       .  S
C1306      H1311   1.110       .  S
C1306      H1312   1.111       .  S
C1313      C1314   1.401       .  A
C1313      C1318   1.408       .  A
C1313      H1320   1.084       .  S
C1314      C1315   1.429       .  A
C1315      C1316   1.413       .  A
C1315      C1322   1.508       .  S
C1316      C1317   1.402       .  A
C1316      H1321   1.084       .  S
C1317      C1318   1.429       .  A
C1318      C1319   1.511       .  S
C1319      H1323   1.111       .  S
C1319      H1324   1.110       .  S
C1319      H1325   1.108       .  S
C1322      H1326   1.110       .  S
C1322      H1327   1.104       .  S
C1322      H1328   1.111       .  S
C1329      C1330   1.404       .  A
C1329      H1336   1.083       .  S
C1331      C1332   1.411       .  A
C1331      C1338   1.510       .  S
C1332      C1333   1.402       .  A
C1332      H1337   1.084       .  S
C1333      C1334   1.430       .  A
C1335      H1339   1.111   1_455  S
C1338      H1342   1.103       .  S
C1338      H1343   1.110       .  S
C1338      H1344   1.111       .  S
C1345      C1346   1.414       .  A
C1345      C1350   1.412       .  A
C1345      H1352   1.083       .  S
C1346      C1347   1.425       .  A
C1347      C1348   1.399       .  A
C1347      C1354   1.511       .  S
C1348      C1349   1.401       .  A
C1348      H1353   1.085       .  S
C1349      C1350   1.410       .  A
C1350      C1351   1.505       .  S
C1351      H1355   1.111       .  S
C1351      H1356   1.110       .  S
C1351      H1357   1.111       .  S
C1354      H1358   1.110       .  S
C1354      H1359   1.110       .  S
C1354      H1360   1.111       .  S
C1361      C1362   1.399       .  A
C1361      C1366   1.413       .  A
C1361      H1368   1.093       .  S
C1362      C1363   1.430       .  A
C1363      C1364   1.418       .  A
C1363      C1370   1.509       .  S
C1364      C1365   1.405       .  A
C1364      H1369   1.084       .  S
C1365      C1366   1.429       .  A
C1366      C1367   1.500       .  S
C1367      H1371   1.112       .  S
C1367      H1372   1.110       .  S
C1367      H1373   1.104       .  S
C1370      H1374   1.109       .  S
C1370      H1375   1.110       .  S
C1370      H1376   1.111       .  S
C1377      C1382   1.395       .  A
C1377      H1384   1.086       .  S
C1378      C1379   1.412       .  A
C1379      C1386   1.505       .  S
C1380      C1381   1.397       .  A
C1380      H1385   1.086       .  S
C1381      C1382   1.412       .  A
C1382      C1383   1.509       .  S
C1383      H1387   1.111       .  S
C1383      H1388   1.108       .  S
C1383      H1389   1.110       .  S
C1386      H1390   1.109       .  S
C1386      H1391   1.106       .  S
C1386      H1392   1.110       .  S
C1393      C1394   1.406       .  A
C1393      C1398   1.411       .  A
C1393      H1400   1.086       .  S
C1394      C1395   1.423       .  A
C1395      C1396   1.402       .  A
C1395      C1402   1.507       .  S
C1396      C1397   1.397       .  A
C1396      H1401   1.086       .  S
C1397      C1398   1.416       .  A
C1398      C1399   1.506       .  S
C1399      H1403   1.111       .  S
C1399      H1404   1.109       .  S
C1399      H1405   1.110       .  S
C1402      H1406   1.108       .  S
C1402      H1407   1.109       .  S
C1402      H1408   1.111       .  S
C1409      C1410   1.403       .  A
C1409      C1414   1.414       .  A
C1409      H1416   1.081       .  S
C1410      C1411   1.421       .  A
C1411      C1412   1.400       .  A
C1411      C1418   1.511       .  S
C1412      C1413   1.400       .  A
C1412      H1417   1.088       .  S
C1413      C1414   1.421       .  A
C1414      C1415   1.507       .  S
C1415      H1419   1.111       .  S
C1415      H1420   1.111       .  S
C1415      H1421   1.109       .  S
C1418      H1422   1.108       .  S
C1418      H1423   1.108       .  S
C1418      H1424   1.111       .  S
C1425      C1426   1.413       .  A
C1425      C1430   1.412       .  A
C1425      H1432   1.083       .  S
C1426      C1427   1.424       .  A
C1427      C1428   1.402       .  A
C1427      C1434   1.510       .  S
C1428      C1429   1.400       .  A
C1428      H1433   1.083       .  S
C1429      C1430   1.411       .  A
C1430      C1431   1.506       .  S
C1431      H1435   1.111       .  S
C1431      H1436   1.110       .  S
C1431      H1437   1.110       .  S
C1434      H1438   1.110       .  S
C1434      H1439   1.109       .  S
C1434      H1440   1.111       .  S
C1441      C1442   1.413       .  A
C1441      C1446   1.398       .  A
C1441      H1448   1.081   1_545  S
C1442      C1443   1.415       .  A
C1443      C1444   1.410       .  A
C1443      C1450   1.505       .  S
C1444      C1445   1.407       .  A
C1444      H1449   1.082       .  S
C1445      C1446   1.406       .  A
C1446      C1447   1.510       .  S
C1447      H1451   1.111   1_545  S
C1447      H1452   1.110       .  S
C1447      H1453   1.109       .  S
C1450      H1454   1.110       .  S
C1450      H1455   1.110       .  S
C1450      H1456   1.111       .  S
C1457      C1458   1.408       .  A
C1457      C1462   1.414       .  A
C1457      H1464   1.082       .  S
C1458      C1459   1.414       .  A
C1459      C1460   1.406       .  A
C1459      C1466   1.508   1_565  S
C1460      C1461   1.405       .  A
C1460      H1465   1.087       .  S
C1461      C1462   1.415       .  A
C1462      C1463   1.507       .  S
C1463      H1467   1.111       .  S
C1463      H1468   1.110       .  S
C1463      H1469   1.111       .  S
C1466      H1470   1.108       .  S
C1466      H1471   1.110   1_545  S
C1466      H1472   1.111       .  S
C1473      C1474   1.417   1_565  A
C1473      H1480   1.080       .  S
C1475      C1476   1.407       .  A
C1476      C1477   1.421   1_545  A
C1476      H1481   1.078       .  S
C1477      C1478   1.402       .  A
C1478      C1479   1.505       .  S
C1479      H1483   1.111       .  S
C1479      H1484   1.110       .  S
C1479      H1485   1.111       .  S
C1482      H1486   1.111   1_455  S
C1482      H1487   1.111   1_455  S
C1489      C1490   1.406       .  A
C1489      C1494   1.386       .  A
C1489      H1496   1.085       .  S
C1490      C1491   1.403   1_565  A
C1491      C1492   1.385       .  A
C1491      C1498   1.510       .  S
C1492      C1493   1.404       .  A
C1492      H1497   1.085       .  S
C1493      C1494   1.401   1_545  A
C1494      C1495   1.508       .  S
C1495      H1499   1.111       .  S
C1495      H1500   1.109       .  S
C1495      H1501   1.111       .  S
C1498      H1502   1.110       .  S
C1498      H1503   1.109       .  S
C1498      H1504   1.111       .  S
C1505      C1510   1.418       .  A
C1505      H1512   1.084       .  S
C1506      C1507   1.414       .  A
C1507      C1514   1.507       .  S
C1508      C1509   1.415       .  A
C1508      H1513   1.085       .  S
C1509      C1510   1.419       .  A
C1510      C1511   1.506       .  S
C1511      H1515   1.111       .  S
C1511      H1516   1.110       .  S
C1511      H1517   1.110       .  S
C1514      H1518   1.108       .  S
C1514      H1519   1.110       .  S
C1514      H1520   1.110       .  S
C1521      C1522   1.409       .  A
C1521      C1526   1.401       .  A
C1521      H1528   1.085       .  S
C1522      C1523   1.412       .  A
C1523      C1524   1.414       .  A
C1523      C1530   1.504       .  S
C1524      C1525   1.410       .  A
C1524      H1529   1.085       .  S
C1525      C1526   1.406       .  A
C1526      C1527   1.498       .  S
C1527      H1531   1.111       .  S
C1527      H1532   1.103       .  S
C1527      H1533   1.110       .  S
C1530      H1534   1.111       .  S
C1530      H1535   1.110       .  S
C1530      H1536   1.111       .  S
C1537      C1538   1.416       .  A
C1537      C1542   1.415       .  A
C1537      H1544   1.085       .  S
C1538      C1539   1.421       .  A
C1539      C1540   1.408       .  A
C1539      C1546   1.499       .  S
C1540      C1541   1.399       .  A
C1540      H1545   1.083       .  S
C1541      C1542   1.409       .  A
C1542      C1543   1.505       .  S
C1543      H1547   1.111       .  S
C1543      H1548   1.110       .  S
C1543      H1549   1.111       .  S
C1546      H1550   1.110       .  S
C1546      H1551   1.107       .  S
C1546      H1552   1.111       .  S
C1553      C1554   1.400   1_554  A
C1553      C1558   1.408       .  A
C1553      H1560   1.084       .  S
C1554      C2115   1.425       .  A
C1555      C2114   1.422       .  A
C1555      C1556   1.404       .  A
C1555      C1562   1.500       .  S
C1556      C1557   1.394       .  A
C1556      H1561   1.083       .  S
C1557      C2118   1.422       .  A
C1558      C2117   1.421   1_554  A
C1558      C1559   1.508       .  S
C1559      H1563   1.111       .  S
C1559      H1564   1.110       .  S
C1559      H1565   1.107       .  S
C1562      H1566   1.107       .  S
C1562      H1567   1.108       .  S
C1562      H1568   1.111       .  S
C1569      C1570   1.405       .  A
C1569      H1576   1.084       .  S
C1570      C2131   1.404       .  A
C1571      C2130   1.405       .  A
C1571      C1572   1.386       .  A
C1571      C1578   1.511       .  S
C1572      H1577   1.085       .  S
C1573      C2134   1.404   1_655  A
C1574      C2133   1.404   1_455  A
C1574      C1575   1.508       .  S
C1575      H1579   1.111       .  S
C1575      H1580   1.110       .  S
C1575      H1581   1.104       .  S
C1578      H1582   1.111       .  S
C1578      H1583   1.105       .  S
C1578      H1584   1.110       .  S
C1585      C1586   1.400       .  A
C1585      C1590   1.411       .  A
C1585      H1592   1.084       .  S
C1586      C1587   1.430       .  A
C1587      C1588   1.416       .  A
C1587      C1594   1.508       .  S
C1588      C1589   1.403       .  A
C1588      H1593   1.083       .  S
C1589      C1590   1.434       .  A
C1590      C1591   1.512       .  S
C1591      H1595   1.111       .  S
C1591      H1596   1.105       .  S
C1591      H1597   1.110       .  S
C1594      H1598   1.109       .  S
C1594      H1599   1.111       .  S
C1594      H1600   1.111       .  S
C1601      C1602   1.407       .  A
C1601      C1606   1.407       .  A
C1601      H1608   1.083       .  S
C1602      C2163   1.419   1_554  A
C1603      C2162   1.424       .  A
C1603      C1604   1.409       .  A
C1603      C1610   1.509       .  S
C1604      C1605   1.400       .  A
C1604      H1609   1.085       .  S
C1605      C2166   1.414       .  A
C1606      C2165   1.413   1_554  A
C1606      C1607   1.508       .  S
C1607      H1611   1.111       .  S
C1607      H2172   1.110       .  S
C1607      H1613   1.110       .  S
C1610      H1614   1.110       .  S
C1610      H2175   1.109       .  S
C1610      H1616   1.111       .  S
H1612      C2167   1.109       .  S
H1615      C2170   1.109       .  S
C1617      C1618   1.422   1_545  A
C1617      H1624   1.082       .  S
C1619      C1620   1.415       .  A
C1619      C1626   1.507       .  S
C1620      C1621   1.417   1_566  A
C1620      H1625   1.085       .  S
C1621      C1622   1.414       .  A
C1622      C1623   1.507       .  S
C1623      H2188   1.110       .  S
C1623      H1629   1.107       .  S
C1626      H2190   1.105       .  S
C1626      H1631   1.110       .  S
C1626      H1632   1.111       .  S
H1628      C2183   1.110       .  S
H1630      C2186   1.109       .  S
C1633      C1634   1.409   1_556  A
C1633      C1638   1.393       .  A
C1633      H1640   1.085       .  S
C1634      C2195   1.404       .  A
C1635      C2194   1.403   1_565  A
C1635      C1636   1.393       .  A
C1635      C1642   1.508       .  S
C1636      C1637   1.410       .  A
C1636      H1641   1.087       .  S
C1637      C2198   1.403   1_565  A
C1638      C2197   1.403   1_556  A
C1638      C1639   1.508       .  S
C1639      H1643   1.111       .  S
C1639      H1644   1.110   1_545  S
C1639      H1645   1.110       .  S
C1642      H1646   1.110       .  S
C1642      H1647   1.110   1_565  S
C1642      H1648   1.110       .  S
C1649      C1650   1.409       .  A
C1649      C1654   1.410       .  A
C1649      H1656   1.084       .  S
C1650      C1651   1.405       .  A
C1651      C1652   1.401       .  A
C1651      C1658   1.507       .  S
C1652      C1653   1.411       .  A
C1652      H1657   1.082       .  S
C1653      C1654   1.411       .  A
C1654      C1655   1.505       .  S
C1655      H1659   1.111       .  S
C1655      H1660   1.110       .  S
C1655      H1661   1.110       .  S
C1658      H1662   1.110       .  S
C1658      H1663   1.111       .  S
C1658      H1664   1.111       .  S
C1665      C1666   1.418       .  A
C1665      C1670   1.419       .  A
C1665      H1672   1.083       .  S
C1666      C1667   1.422   1_545  A
C1667      C1668   1.408       .  A
C1667      C1674   1.509       .  S
C1668      C1669   1.405   1_565  A
C1668      H1673   1.084       .  S
C1669      C1670   1.411       .  A
C1670      C1671   1.504       .  S
C1671      H1675   1.111       .  S
C1671      H1676   1.110       .  S
C1671      H1677   1.111       .  S
C1674      H1678   1.110       .  S
C1674      H1679   1.110       .  S
C1674      H1680   1.111       .  S
O1681     Cr1699   2.057       .  S
O1681      C1689   1.283       .  A
O1682     Cr1699   1.980       .  S
O1682      C1683   1.256       .  A
C1683      O1684   1.268       .  A
C1683      C2229   1.494   1_565  S
O1684     Cr1700   2.041       .  S
O1685     Cr1700   1.991       .  S
O1685      C1686   1.261   1_556  A
C1686      O1687   1.250       .  A
C1686      C2197   1.446   1_565  S
O1687     Cr1701   1.953       .  S
O1688     Cr1701   1.952   1_556  S
O1688      C1689   1.256       .  A
C1689      C2149   1.506       .  S
O1690     Cr1699   2.014       .  S
O1690      C1698   1.267       .  A
O1691     Cr1699   2.082       .  S
O1691      C1692   1.286       .  A
C1692      O1693   1.254   1_556  A
C1692      C2178   1.518       .  S
O1693     Cr1700   1.944   1_554  S
O1694      C1695   1.276       .  A
C1695      O1696   1.263       .  A
C1695      C2210   1.465       .  S
C1698      C2165   1.479       .  S
Cr1699     O1702   1.771       .  S
Cr1700     O1702   1.770       .  S
Cr1701     O1702   1.772   1_554  S
O1703     Cr1721   2.010       .  S
O1703      C1711   1.263       .  A
O1704     Cr1721   1.945       .  S
O1704      C1705   1.246       .  A
C1705      O1706   1.255       .  A
C1705      C2133   1.439       .  S
O1706     Cr1722   1.968       .  S
O1707     Cr1722   2.001       .  S
O1707      C1708   1.265       .  A
C1708      O1709   1.262       .  A
C1708      C2082   1.481       .  S
O1709     Cr1723   1.982       .  S
O1710     Cr1723   2.011       .  S
O1710      C1711   1.264       .  A
C1711      C2066   1.510       .  S
O1713      C1714   1.266       .  A
C1714      O1715   1.270       .  A
C1714      C2098   1.511       .  S
O1716     Cr1722   1.964       .  S
O1716      C1717   1.257       .  A
C1717      O1718   1.280       .  A
C1717      C2114   1.489       .  S
O1718     Cr1723   2.027       .  S
O1719     Cr1723   2.042       .  S
O1719      C1720   1.275       .  A
C1720      C2162   1.496       .  S
Cr1721     O1724   1.774       .  S
Cr1722     O1724   1.776       .  S
Cr1723     O1724   1.773       .  S
O1725     Cr1743   2.011       .  S
O1725      C1733   1.266       .  A
O1726     Cr1743   1.971       .  S
O1726      C1727   1.260       .  A
C1727      O1728   1.268   1_565  A
C1727      C2002   1.491   1_565  S
O1728     Cr1744   2.013   1_545  S
O1729     Cr1744   1.976   1_545  S
O1729      C1730   1.254   1_545  A
C1730      O1731   1.245       .  A
C1730      C2050   1.437       .  S
O1731     Cr1745   1.941       .  S
O1732     Cr1745   1.997       .  S
O1732      C1733   1.257       .  A
C1733      C2146   1.503       .  S
O1734     Cr1743   2.022       .  S
O1734      C1742   1.270       .  A
O1735     Cr1743   2.021       .  S
O1735      C1736   1.279       .  A
C1736      O1737   1.258       .  A
C1736      C2037   1.478       .  S
O1737     Cr1744   1.964       .  S
O1738     Cr1744   2.004       .  S
O1738      C1739   1.268       .  A
C1739      O1740   1.267       .  A
C1739      C2021   1.493       .  S
O1740     Cr1745   2.007       .  S
O1741     Cr1745   1.962       .  S
O1741      C1742   1.258       .  A
C1742      C1986   1.500       .  S
Cr1743     O1746   1.765       .  S
Cr1744     O1746   1.781       .  S
Cr1745     O1746   1.773       .  S
O1747     Cr1765   1.966       .  S
O1747      C1755   1.261       .  A
O1748     Cr1765   1.949       .  S
O1748      C1749   1.248       .  A
C1749      O1750   1.261       .  A
C1749      C1941   1.441       .  S
O1750     Cr1766   1.995       .  S
O1751     Cr1766   2.043       .  S
O1751      C1752   1.267       .  A
C1752      O1753   1.247       .  A
C1752      C1970   1.487       .  S
O1753     Cr1767   1.954       .  S
O1754     Cr1767   2.057       .  S
O1754      C1755   1.281       .  A
C1755      C2069   1.510       .  S
O1756     Cr1765   1.959       .  S
O1756      C1764   1.254       .  A
O1757     Cr1765   1.979       .  S
O1757      C1758   1.266       .  A
C1758      O1759   1.276       .  A
C1758      C1957   1.477       .  S
O1759     Cr1766   2.022       .  S
O1760     Cr1766   1.949       .  S
O1760      C1761   1.253       .  A
C1761      O1762   1.286       .  A
C1761      C1922   1.511       .  S
O1762     Cr1767   2.076       .  S
O1763     Cr1767   2.007       .  S
O1763      C1764   1.264       .  A
C1764      C1989   1.480       .  S
Cr1765     O1768   1.766       .  S
Cr1766     O1768   1.774       .  S
Cr1767     O1768   1.766       .  S
O1769     Cr1787   2.052       .  S
O1769      C1777   1.280       .  A
O1770     Cr1787   1.963       .  S
O1770      C1771   1.251       .  A
C1771      O1772   1.268       .  A
C1771      C2101   1.485       .  S
O1772     Cr1788   2.042       .  S
O1773     Cr1788   1.997       .  S
O1773      C1774   1.262       .  A
C1774      O1775   1.249       .  A
C1774      C1938   1.444       .  S
O1775     Cr1789   1.956       .  S
O1776     Cr1789   1.961       .  S
O1776      C1777   1.257       .  A
C1777      C1890   1.504       .  S
O1778     Cr1787   1.996       .  S
O1778      C1786   1.262       .  A
O1779     Cr1787   2.069       .  S
O1779      C1780   1.284       .  A
C1780      O1781   1.257       .  A
C1780      C1925   1.516       .  S
O1781     Cr1788   1.959       .  S
O1782     Cr1788   2.031       .  S
O1782      C1783   1.276       .  A
C1783      O1784   1.264       .  A
C1783      C2085   1.476       .  S
O1784     Cr1789   1.974       .  S
O1785     Cr1789   1.964       .  S
O1785      C1786   1.254       .  A
C1786      C1909   1.467       .  S
Cr1787     O1790   1.770       .  S
Cr1788     O1790   1.772       .  S
Cr1789     O1790   1.771       .  S
O1791     Cr1809   1.997       .  S
O1791      C1799   1.258       .  A
O1792     Cr1809   1.938       .  S
O1792      C1793   1.242       .  A
C1793      O1794   1.254       .  A
C1793      C2053   1.435       .  S
O1794     Cr1810   1.976       .  S
O1795     Cr1810   2.009   1_565  S
O1795      C1796   1.267   1_565  A
C1796      O1797   1.256       .  A
C1796      C2213   1.483   1_545  S
O1797     Cr1811   1.964       .  S
O1798     Cr1811   2.032       .  S
O1798      C1799   1.272       .  A
C1799      C1874   1.515       .  S
O1800     Cr1809   1.966       .  S
O1800      C1808   1.260       .  A
O1801     Cr1809   2.024       .  S
O1801      C1802   1.270       .  A
C1802      O1803   1.266       .  A
C1802      C2226   1.503       .  S
O1803     Cr1810   1.999       .  S
O1804     Cr1810   1.961       .  S
O1804      C1805   1.258       .  A
C1805      O1806   1.281       .  A
C1805      C2034   1.482       .  S
O1806     Cr1811   2.031       .  S
O1807     Cr1811   2.009       .  S
O1807      C1808   1.266       .  A
C1808      C1906   1.491       .  S
Cr1809     O1812   1.773       .  S
Cr1810     O1812   1.780       .  S
Cr1811     O1812   1.766       .  S
O1813     Cr1831   1.953       .  S
O1813      C1821   1.256       .  A
O1814     Cr1831   1.951       .  S
O1814      C1815   1.249       .  A
C1815      O1816   1.262       .  A
C1815      C2194   1.451       .  S
O1816     Cr1832   1.996       .  S
O1817     Cr1832   2.029       .  S
O1817      C1818   1.265       .  A
C1818      O1819   1.253       .  A
C1818      C2018   1.483   1_545  S
O1819     Cr1833   1.967       .  S
O1820     Cr1833   2.074       .  S
O1820      C1821   1.287       .  A
C1821      C1877   1.517       .  S
O1823      C1824   1.267       .  A
C1824      O1825   1.278       .  A
C1824      C2005   1.472       .  S
O1826     Cr1832   1.946       .  S
O1826      C1827   1.255       .  A
C1827      O1828   1.287       .  A
C1827      C2181   1.520       .  S
O1828     Cr1833   2.086       .  S
O1829     Cr1833   2.012       .  S
O1829      C1830   1.264       .  A
C1830      C1858   1.478       .  S
Cr1831     O1834   1.770       .  S
Cr1832     O1834   1.768       .  S
Cr1833     O1834   1.769       .  S
O1835     Cr1853   2.016       .  S
O1835      C1843   1.268       .  A
O1836     Cr1853   1.992       .  S
O1836      C1837   1.262       .  A
C1837      O1838   1.266       .  A
C1837      C1954   1.493       .  S
O1838     Cr1854   2.000       .  S
O1839     Cr1854   1.968       .  S
O1839      C1840   1.254       .  A
C1840      O1841   1.248       .  A
C1840      C2130   1.438       .  S
O1841     Cr1855   1.946       .  S
O1842     Cr1855   1.998       .  S
O1842      C1843   1.258       .  A
C1843      C1893   1.505       .  S
O1844     Cr1853   2.025       .  S
O1844      C1852   1.271       .  A
O1845     Cr1853   2.026       .  S
O1845      C1846   1.277       .  A
C1846      O1847   1.255       .  A
C1846      C2117   1.478       .  S
O1847     Cr1854   1.953       .  S
O1848      C1849   1.266       .  A
C1849      O1850   1.263       .  A
C1849      C1973   1.492       .  S
Cr1853     O1856   1.764       .  S
Cr1854     O1856   1.778       .  S
Cr1855     O1856   1.771       .  S
C1857      C1862   1.403       .  A
C1857      H1864   1.085       .  S
C1858      C1859   1.408       .  A
C1859      C1860   1.410       .  A
C1859      C1866   1.505       .  S
C1860      C1861   1.414       .  A
C1860      H1865   1.084       .  S
C1862      C1863   1.509       .  S
C1863      H1867   1.111       .  S
C1863      H1868   1.110       .  S
C1863      H1869   1.110       .  S
C1866      H1870   1.110       .  S
C1866      H1871   1.110       .  S
C1866      H1872   1.111       .  S
C1873      C1874   1.401       .  A
C1873      C1878   1.412       .  A
C1873      H1880   1.084       .  S
C1874      C1875   1.431       .  A
C1875      C1876   1.417       .  A
C1875      C1882   1.509       .  S
C1876      C1877   1.404       .  A
C1876      H1881   1.082       .  S
C1877      C1878   1.433       .  A
C1878      C1879   1.511       .  S
C1879      H1883   1.111       .  S
C1879      H1884   1.110       .  S
C1879      H1885   1.107       .  S
C1882      H1886   1.110       .  S
C1882      H1887   1.107       .  S
C1882      H1888   1.111       .  S
C1889      C1890   1.403       .  A
C1889      H1896   1.083       .  S
C1891      C1892   1.410       .  A
C1891      C1898   1.509       .  S
C1892      C1893   1.403       .  A
C1892      H1897   1.084       .  S
C1893      C1894   1.427       .  A
C1895      H1899   1.111   1_455  S
C1898      H1902   1.105       .  S
C1898      H1903   1.110       .  S
C1898      H1904   1.111       .  S
C1905      C1906   1.408       .  A
C1905      C1910   1.408       .  A
C1905      H1912   1.084       .  S
C1906      C1907   1.427       .  A
C1907      C1908   1.399       .  A
C1907      C1914   1.511       .  S
C1908      C1909   1.396       .  A
C1908      H1913   1.086       .  S
C1909      C1910   1.410       .  A
C1910      C1911   1.505       .  S
C1911      H1915   1.111       .  S
C1911      H1916   1.110       .  S
C1911      H1917   1.109       .  S
C1914      H1918   1.106       .  S
C1914      H1919   1.110       .  S
C1914      H1920   1.111       .  S
C1921      C1922   1.400       .  A
C1921      C1926   1.411       .  A
C1921      H1928   1.077       .  S
C1922      C1923   1.430       .  A
C1923      C1924   1.414       .  A
C1923      C1930   1.510       .  S
C1924      C1925   1.405       .  A
C1924      H1929   1.083       .  S
C1925      C1926   1.430       .  A
C1926      C1927   1.504       .  S
C1927      H1931   1.111       .  S
C1927      H1932   1.110       .  S
C1927      H1933   1.109       .  S
C1930      H1934   1.109       .  S
C1930      H1935   1.110       .  S
C1930      H1936   1.110       .  S
C1937      C1942   1.394       .  A
C1937      H1944   1.085       .  S
C1938      C1939   1.411       .  A
C1939      C1946   1.506       .  S
C1940      C1941   1.398       .  A
C1940      H1945   1.086       .  S
C1941      C1942   1.412       .  A
C1942      C1943   1.510       .  S
C1943      H1947   1.111       .  S
C1943      H1948   1.109       .  S
C1943      H1949   1.110       .  S
C1946      H1950   1.109       .  S
C1946      H1951   1.105       .  S
C1946      H1952   1.111       .  S
C1953      C1954   1.406       .  A
C1953      C1958   1.412       .  A
C1953      H1960   1.082       .  S
C1954      C1955   1.424       .  A
C1955      C1956   1.398       .  A
C1955      C1962   1.505       .  S
C1956      C1957   1.394       .  A
C1956      H1961   1.088       .  S
C1957      C1958   1.417       .  A
C1958      C1959   1.506       .  S
C1959      H1963   1.111       .  S
C1959      H1964   1.109       .  S
C1959      H1965   1.110       .  S
C1962      H1966   1.108       .  S
C1962      H1967   1.107       .  S
C1962      H1968   1.111       .  S
C1969      C1970   1.403       .  A
C1969      C1974   1.415       .  A
C1969      H1976   1.085       .  S
C1970      C1971   1.420       .  A
C1971      C1972   1.398       .  A
C1971      C1978   1.510       .  S
C1972      C1973   1.398       .  A
C1972      H1977   1.087       .  S
C1973      C1974   1.424       .  A
C1974      C1975   1.507       .  S
C1975      H1979   1.111       .  S
C1975      H1980   1.111       .  S
C1975      H1981   1.109       .  S
C1978      H1982   1.104       .  S
C1978      H1983   1.109       .  S
C1978      H1984   1.112       .  S
C1985      C1986   1.416       .  A
C1985      C1990   1.412       .  A
C1985      H1992   1.084       .  S
C1986      C1987   1.422       .  A
C1987      C1988   1.399       .  A
C1987      C1994   1.510       .  S
C1988      C1989   1.402       .  A
C1988      H1993   1.085       .  S
C1989      C1990   1.410       .  A
C1990      C1991   1.506       .  S
C1991      H1995   1.111       .  S
C1991      H1996   1.111       .  S
C1991      H1997   1.110       .  S
C1994      H1998   1.110       .  S
C1994      H1999   1.110       .  S
C1994      H2000   1.111       .  S
C2001      C2002   1.412       .  A
C2001      C2006   1.394       .  A
C2001      H2008   1.083   1_545  S
C2002      C2003   1.414       .  A
C2003      C2004   1.413       .  A
C2003      C2010   1.506       .  S
C2004      C2005   1.411       .  A
C2004      H2009   1.080       .  S
C2005      C2006   1.402       .  A
C2006      C2007   1.509       .  S
C2007      H2011   1.111   1_545  S
C2007      H2012   1.110       .  S
C2007      H2013   1.109   1_545  S
C2010      H2014   1.110       .  S
C2010      H2015   1.111       .  S
C2010      H2016   1.110       .  S
C2017      C2018   1.406       .  A
C2017      C2022   1.412       .  A
C2017      H2024   1.080       .  S
C2018      C2019   1.411       .  A
C2019      C2020   1.405       .  A
C2019      C2026   1.508   1_565  S
C2020      C2021   1.409       .  A
C2020      H2025   1.084       .  S
C2021      C2022   1.415       .  A
C2022      C2023   1.506       .  S
C2023      H2027   1.111       .  S
C2023      H2028   1.110       .  S
C2023      H2029   1.110       .  S
C2026      H2030   1.110       .  S
C2026      H2031   1.110   1_545  S
C2026      H2032   1.111   1_545  S
C2033      C2034   1.414   1_565  A
C2033      H2040   1.063       .  S
C2035      C2036   1.408       .  A
C2036      C2037   1.413   1_545  A
C2036      H2041   1.076       .  S
C2037      C2038   1.403       .  A
C2038      C2039   1.505       .  S
C2039      H2043   1.111       .  S
C2039      H2044   1.110       .  S
C2039      H2045   1.111       .  S
C2042      H2046   1.111   1_455  S
C2042      H2047   1.110   1_455  S
C2049      C2050   1.406       .  A
C2049      C2054   1.388       .  A
C2049      H2056   1.085       .  S
C2050      C2051   1.402   1_565  A
C2051      C2052   1.386       .  A
C2051      C2058   1.508       .  S
C2052      C2053   1.404       .  A
C2052      H2057   1.086       .  S
C2053      C2054   1.400   1_545  A
C2054      C2055   1.508       .  S
C2055      H2059   1.111       .  S
C2055      H2060   1.109       .  S
C2055      H2061   1.111       .  S
C2058      H2062   1.111       .  S
C2058      H2063   1.109       .  S
C2058      H2064   1.111       .  S
C2065      C2070   1.414       .  A
C2065      H2072   1.085       .  S
C2066      C2067   1.416       .  A
C2067      C2074   1.507       .  S
C2068      C2069   1.414       .  A
C2068      H2073   1.084       .  S
C2069      C2070   1.417       .  A
C2070      C2071   1.507       .  S
C2071      H2075   1.111       .  S
C2071      H2076   1.110       .  S
C2071      H2077   1.110       .  S
C2074      H2078   1.109       .  S
C2074      H2079   1.110       .  S
C2074      H2080   1.110       .  S
C2081      C2082   1.407       .  A
C2081      C2086   1.398       .  A
C2081      H2088   1.084       .  S
C2082      C2083   1.411       .  A
C2083      C2084   1.410       .  A
C2083      C2090   1.505       .  S
C2084      C2085   1.409       .  A
C2084      H2089   1.084       .  S
C2085      C2086   1.404       .  A
C2086      C2087   1.501       .  S
C2087      H2091   1.111       .  S
C2087      H2092   1.105       .  S
C2087      H2093   1.110       .  S
C2090      H2094   1.111       .  S
C2090      H2095   1.110       .  S
C2090      H2096   1.111       .  S
C2097      C2098   1.416       .  A
C2097      C2102   1.412       .  A
C2097      H2104   1.083       .  S
C2098      C2099   1.419       .  A
C2099      C2100   1.411       .  A
C2099      C2106   1.502       .  S
C2100      C2101   1.403       .  A
C2100      H2105   1.080       .  S
C2101      C2102   1.407       .  A
C2102      C2103   1.506       .  S
C2103      H2107   1.110       .  S
C2103      H2108   1.110       .  S
C2103      H2109   1.111       .  S
C2106      H2110   1.110       .  S
C2106      H2111   1.107       .  S
C2106      H2112   1.110       .  S
C2113      C2114   1.403       .  A
C2113      C2118   1.412       .  A
C2113      H2120   1.084       .  S
C2115      C2116   1.407       .  A
C2115      C2122   1.506       .  S
C2116      C2117   1.396       .  A
C2116      H2121   1.084       .  S
C2118      C2119   1.508       .  S
C2119      H2123   1.111       .  S
C2119      H2124   1.110       .  S
C2119      H2125   1.108       .  S
C2122      H2126   1.108       .  S
C2122      H2127   1.110       .  S
C2122      H2128   1.111       .  S
C2129      C2130   1.405   1_554  A
C2129      H2136   1.084       .  S
C2131      C2132   1.387       .  A
C2131      C2138   1.510       .  S
C2132      H2137   1.083       .  S
C2134      C2135   1.508       .  S
C2135      H2139   1.111       .  S
C2135      H2140   1.110       .  S
C2135      H2141   1.106       .  S
C2138      H2142   1.110       .  S
C2138      H2143   1.106       .  S
C2138      H2144   1.110       .  S
C2145      C2146   1.402       .  A
C2145      C2150   1.408       .  A
C2145      H2152   1.083       .  S
C2146      C2147   1.427       .  A
C2147      C2148   1.411       .  A
C2147      C2154   1.509       .  S
C2148      C2149   1.403       .  A
C2148      H2153   1.084       .  S
C2149      C2150   1.429       .  A
C2150      C2151   1.511       .  S
C2151      H2155   1.111       .  S
C2151      H2156   1.107       .  S
C2151      H2157   1.110       .  S
C2154      H2158   1.107       .  S
C2154      H2159   1.110       .  S
C2154      H2160   1.111       .  S
C2161      C2162   1.407       .  A
C2161      C2166   1.406       .  A
C2161      H2168   1.082       .  S
C2163      C2164   1.409       .  A
C2163      C2170   1.507       .  S
C2164      C2165   1.402       .  A
C2164      H2169   1.085       .  S
C2166      C2167   1.508       .  S
C2167      H2171   1.111       .  S
C2167      H2173   1.111       .  S
C2170      H2174   1.110       .  S
C2170      H2176   1.111       .  S
C2177      C2178   1.420   1_554  A
C2177      H2184   1.082       .  S
C2179      C2180   1.415   1_565  A
C2179      C2186   1.506       .  S
C2180      C2181   1.420       .  A
C2180      H2185   1.083       .  S
C2181      C2182   1.415       .  A
C2182      C2183   1.507       .  S
C2183      H2189   1.106       .  S
C2186      H2191   1.110       .  S
C2186      H2192   1.111       .  S
C2193      C2194   1.409       .  A
C2193      C2198   1.393       .  A
C2193      H2200   1.085       .  S
C2195      C2196   1.394       .  A
C2195      C2202   1.508       .  S
C2196      C2197   1.408       .  A
C2196      H2201   1.086       .  S
C2198      C2199   1.509       .  S
C2199      H2203   1.111       .  S
C2199      H2204   1.110   1_545  S
C2199      H2205   1.110       .  S
C2202      H2206   1.110   1_545  S
C2202      H2207   1.109       .  S
C2202      H2208   1.110       .  S
C2209      C2210   1.409       .  A
C2209      C2214   1.409       .  A
C2209      H2216   1.082       .  S
C2210      C2211   1.400       .  A
C2211      C2212   1.395       .  A
C2211      C2218   1.509       .  S
C2212      C2213   1.413       .  A
C2212      H2217   1.073   1_565  S
C2213      C2214   1.411       .  A
C2214      C2215   1.506       .  S
C2215      H2219   1.111       .  S
C2215      H2220   1.111       .  S
C2215      H2221   1.110       .  S
C2218      H2222   1.110       .  S
C2218      H2223   1.111       .  S
C2218      H2224   1.110       .  S
C2225      C2226   1.411       .  A
C2225      C2230   1.411       .  A
C2225      H2232   1.084       .  S
C2226      C2227   1.419       .  A
C2227      C2228   1.414       .  A
C2227      C2234   1.507       .  S
C2228      C2229   1.406       .  A
C2228      H2233   1.081       .  S
C2229      C2230   1.412       .  A
C2230      C2231   1.506       .  S
C2231      H2235   1.111       .  S
C2231      H2236   1.110       .  S
C2231      H2237   1.110   1_545  S
C2234      H2238   1.110       .  S
C2234      H2239   1.109       .  S
C2234      H2240   1.111       .  S
