geometry optimzed in LAMMPS
_audit_creation_date              2020-12-01 
_audit_creation_method            'lammps2cif' 
_symmetry_space_group_name_H-M    'P1' 
_symmetry_Int_Tables_number       1 
_symmetry_cell_setting            triclinic 
loop_ 
_symmetry_equiv_pos_as_xyz 
  x,y,z 
_cell_length_a                    50.38071075 
_cell_length_b                    38.13151432786541 
_cell_length_c                    62.37034261227942 
_cell_angle_alpha                 89.92254487241827 
_cell_angle_beta                  90.29665632467125 
_cell_angle_gamma                 89.94165877949892 
loop_ 
_atom_site_label 
_atom_site_type_symbol 
_atom_site_fract_x 
_atom_site_fract_y 
_atom_site_fract_z 
_atom_site_charge 
Fe1        Fe  0.91056700  0.22527738  0.98274792     1.65800
Fe2        Fe  0.88096592  0.20014698  0.02943937     1.73200
Fe3        Fe  0.92735737  0.14665087  0.00644355     1.54400
O4          O  0.92014938  0.13650263  0.97389439    -0.81600
O5          O  0.90795787  0.18893944  0.05297755    -0.80000
O6          O  0.91023810  0.18801967  0.95905746    -0.84200
O7          O  0.95129633  0.22417143  0.98515932    -0.79000
O8          O  0.89447895  0.11520176  0.01254163    -0.80800
O9          O  0.89120464  0.25222528  0.03283871    -0.83500
C10         C  0.96869309  0.20319309  0.99252872     0.97200
C11         C  0.91344972  0.15520403  0.95783418     1.04700
O12         O  0.90638853  0.19071019  0.00622465    -1.12500
O13         O  0.85129270  0.21232425  0.00823394    -0.74900
O14         O  0.87011394  0.23018690  0.97790915    -0.78400
O15         O  0.96272947  0.17336019  0.00035124    -0.79100
C16         C  0.84978713  0.22385444  0.98919303     0.96100
O17         O  0.91109352  0.26822573  0.00278090    -0.77100
O18         O  0.86627529  0.14975397  0.02961529    -0.82300
C19         C  0.92752608  0.16831593  0.05489922     0.98800
C20         C  0.87241531  0.12021857  0.02187470     1.04700
O21         O  0.93651684  0.15045367  0.03925592    -0.77900
C22         C  0.90240014  0.27515947  0.02130095     1.03000
Fe23       Fe  0.86799205  0.20966650  0.78218965     1.65800
Fe24       Fe  0.89599920  0.17866804  0.73649514     1.73200
Fe25       Fe  0.84407744  0.13397076  0.75938628     1.54400
O26         O  0.85033674  0.12320947  0.79219223    -0.81600
O27         O  0.86946202  0.16707590  0.71261079    -0.80000
O28         O  0.86184291  0.17457578  0.80620531    -0.84200
O29         O  0.82808713  0.21744212  0.77779659    -0.79000
O30         O  0.87353829  0.09686361  0.75304280    -0.80800
O31         O  0.88813803  0.23080268  0.73048121    -0.83500
C32         C  0.80892245  0.19893706  0.77104668     0.97200
C33         C  0.85654166  0.14243632  0.80813278     1.04700
O34         O  0.86930878  0.17397229  0.75932188    -1.12500
O35         O  0.92606568  0.19160338  0.75761270    -0.74900
O36         O  0.90790413  0.20570213  0.78879938    -0.78400
O37         O  0.81163741  0.16718248  0.76500165    -0.79100
C38         C  0.92803888  0.20091179  0.77710984     0.96100
O39         O  0.87425927  0.25085471  0.76184774    -0.77100
O40         O  0.90720651  0.12717507  0.73936540    -0.82300
C41         C  0.84711839  0.15220633  0.71075211     0.98800
C42         C  0.89692380  0.09851550  0.74547313     1.04700
O43         O  0.83503894  0.13881401  0.72666288    -0.77900
C44         C  0.88086004  0.25560630  0.74255263     1.03000
Fe45       Fe  0.61290995  0.31664983  0.98408205     1.65800
Fe46       Fe  0.65798968  0.35190653  0.01736735     1.73200
Fe47       Fe  0.60346250  0.39947361  0.00339990     1.54400
O48         O  0.59566196  0.39920390  0.97031324    -0.81600
O49         O  0.63951208  0.36293636  0.04546336    -0.80000
O50         O  0.61007504  0.34765074  0.95755024    -0.84200
O51         O  0.57341439  0.32387286  0.99041459    -0.79000
O52         O  0.63572320  0.43205562  0.99725253    -0.80800
O53         O  0.65304676  0.29903474  0.02397630    -0.83500
C54         C  0.55937014  0.34419981  0.00166407     0.97200
C55         C  0.60101897  0.37837251  0.95489791     1.04700
O56         O  0.62466583  0.35630172  0.00158942    -1.12500
O57         O  0.67858776  0.34048245  0.99003740    -0.74900
O58         O  0.65088554  0.30252473  0.97489768    -0.78400
O59         O  0.56855500  0.37208254  0.01001674    -0.79100
C60         C  0.67392673  0.31527628  0.97735342     0.96100
O61         O  0.61467995  0.28268446  0.00961208    -0.77100
O62         O  0.66862004  0.40373276  0.01352709    -0.82300
C63         C  0.62307501  0.38672323  0.05034100     0.98800
C64         C  0.65926644  0.43099363  0.00465560     1.04700
O65         O  0.60977527  0.40428996  0.03654712    -0.77900
C66         C  0.63459014  0.27671979  0.02154428     1.03000
Fe67       Fe  0.66731858  0.31072215  0.27565085     1.65800
Fe68       Fe  0.62258148  0.33825412  0.23885532     1.73200
Fe69       Fe  0.67480837  0.39086361  0.25134990     1.54400
O70         O  0.67702515  0.39994762  0.28411376    -0.81600
O71         O  0.63477435  0.36466078  0.21225542    -0.80000
O72         O  0.67743952  0.34649941  0.29877124    -0.84200
O73         O  0.70485650  0.31164974  0.26340722    -0.79000
O74         O  0.63982707  0.42066748  0.25048130    -0.80800
O75         O  0.63794856  0.29285792  0.22608469    -0.83500
C76         C  0.71975983  0.33500044  0.25555544     0.97200
C77         C  0.67927746  0.37956157  0.30015686     1.04700
O78         O  0.65502257  0.34678397  0.25539508    -1.12500
O79         O  0.60389461  0.31031676  0.26252778    -0.74900
O80         O  0.63095285  0.30499485  0.29052440    -0.78400
O81         O  0.71191110  0.36602627  0.25135410    -0.79100
C82         C  0.60844181  0.30145213  0.28172355     0.96100
O83         O  0.65898138  0.27059091  0.25456622    -0.77100
O84         O  0.60577961  0.38335793  0.25034905    -0.82300
C85         C  0.65540871  0.38002446  0.20584148     0.98800
C86         C  0.61497497  0.41438976  0.25128822     1.04700
O87         O  0.67479201  0.38714659  0.21811887    -0.77900
C88         C  0.65008796  0.26800864  0.23553698     1.03000
Fe89       Fe  0.36959721  0.21610484  0.27952242     1.65800
Fe90       Fe  0.39795028  0.18982215  0.23278409     1.73200
Fe91       Fe  0.35030482  0.13823612  0.25602071     1.54400
O92         O  0.35624768  0.12827856  0.28878042    -0.81600
O93         O  0.37214449  0.17556006  0.20894500    -0.80000
O94         O  0.36864394  0.17904124  0.30317284    -0.84200
O95         O  0.32898167  0.21706488  0.27706811    -0.79000
O96         O  0.38288456  0.10537722  0.25034806    -0.80800
O97         O  0.38599804  0.24075982  0.22774802    -0.83500
C98         C  0.31082026  0.19750880  0.26961907     0.97200
C99         C  0.36355446  0.14669858  0.30473723     1.04700
O100        O  0.37255831  0.18131701  0.25611257    -1.12500
O101        O  0.42764499  0.20587137  0.25315625    -0.74900
O102        O  0.41013967  0.21968722  0.28469246    -0.78400
O103        O  0.31556185  0.16746466  0.26141742    -0.79100
C104        C  0.42983550  0.21676661  0.27224699     0.96100
O105        O  0.37021431  0.25855022  0.25912106    -0.77100
O106        O  0.41291752  0.13992573  0.23518099    -0.82300
C107        C  0.35202857  0.15602747  0.20715788     0.98800
C108        C  0.40574221  0.11022110  0.24211736     1.04700
O109        O  0.34157280  0.14063378  0.22313531    -0.77900
C110        C  0.37649603  0.26429648  0.23979647     1.03000
Fe111      Fe  0.41324337  0.21012988  0.47975453     1.65800
Fe112      Fe  0.38060380  0.17897243  0.52341635     1.73200
Fe113      Fe  0.43209754  0.13186281  0.50183701     1.54400
O114        O  0.42539037  0.12202848  0.46930470    -0.81600
O115        O  0.40480615  0.16294895  0.54829376    -0.80000
O116        O  0.42046042  0.17534033  0.45541733    -0.84200
O117        O  0.45262262  0.21517619  0.48684169    -0.79000
O118        O  0.40082433  0.09682981  0.50765036    -0.80800
O119        O  0.39031242  0.23029136  0.53091833    -0.83500
C120        C  0.47086813  0.19388454  0.49197173     0.97200
C121        C  0.42229605  0.14244414  0.45335497     1.04700
O122        O  0.40873436  0.17365340  0.50178818    -1.12500
O123        O  0.35305697  0.19568495  0.50110905    -0.74900
O124        O  0.37400772  0.20849630  0.47086171    -0.78400
O125        O  0.46658489  0.16155854  0.49598428    -0.79100
C126        C  0.35288188  0.20473010  0.48148930     0.96100
O127        O  0.40629046  0.25111262  0.50032128    -0.77100
O128        O  0.36668390  0.12888951  0.51848150    -0.82300
C129        C  0.42750709  0.14885661  0.55029372     0.98800
C130        C  0.37651588  0.09968369  0.51288883     1.04700
O131        O  0.44069220  0.13718849  0.53446286    -0.77900
C132        C  0.39837863  0.25545418  0.51935306     1.03000
Fe133      Fe  0.16248761  0.29615782  0.76489909     1.65800
Fe134      Fe  0.11605730  0.33853328  0.73500665     1.73200
Fe135      Fe  0.17338256  0.38077050  0.74819395     1.54400
O136        O  0.17739446  0.38115357  0.78146890    -0.81600
O137        O  0.12938384  0.36586706  0.70918840    -0.80000
O138        O  0.17751503  0.32427867  0.79018209    -0.84200
O139        O  0.19886866  0.29584347  0.75007086    -0.79000
O140        O  0.14142424  0.41594891  0.75106917    -0.80800
O141        O  0.12369449  0.29285425  0.71861078    -0.83500
C142        C  0.21534960  0.31981262  0.74549102     0.97200
C143        C  0.18046386  0.35632188  0.79496239     1.04700
O144        O  0.15075986  0.33847964  0.74934301    -1.12500
O145        O  0.09747777  0.31155567  0.75884729    -0.74900
O146        O  0.12742925  0.29103967  0.78190696    -0.78400
O147        O  0.20886128  0.35214247  0.74517227    -0.79100
C148        C  0.10357185  0.29605393  0.77611202     0.96100
O149        O  0.14879608  0.26250921  0.74152463    -0.77100
O150        O  0.10458160  0.38389860  0.74969054    -0.82300
C151        C  0.15051051  0.38007938  0.70262977     0.98800
C152        C  0.11627031  0.41300397  0.75220725     1.04700
O153        O  0.17080577  0.38419510  0.71467397    -0.77900
C154        C  0.13522671  0.26480762  0.72438804     1.03000
Fe155      Fe  0.11772794  0.29368388  0.47901448     1.65800
Fe156      Fe  0.16068740  0.33076159  0.51354168     1.73200
Fe157      Fe  0.10450026  0.37496425  0.49902837     1.54400
O158        O  0.09516610  0.37376184  0.46611867    -0.81600
O159        O  0.14208441  0.34248949  0.54151584    -0.80000
O160        O  0.11379070  0.32523696  0.45305242    -0.84200
O161        O  0.07807845  0.29785269  0.48565643    -0.79000
O162        O  0.13564621  0.40931867  0.49228889    -0.80800
O163        O  0.15620558  0.27801428  0.52138846    -0.83500
C164        C  0.06320019  0.31605448  0.49758869     0.97200
C165        C  0.10161229  0.35397824  0.45048408     1.04700
O166        O  0.12757728  0.33332911  0.49724033    -1.12500
O167        O  0.18241880  0.31903958  0.48685989    -0.74900
O168        O  0.15592125  0.28276921  0.46921274    -0.78400
O169        O  0.07107129  0.34454947  0.50615235    -0.79100
C170        C  0.17852178  0.29619605  0.47247159     0.96100
O171        O  0.12074626  0.25883498  0.50379237    -0.77100
O172        O  0.16981143  0.38287207  0.50826640    -0.82300
C173        C  0.12518721  0.36579978  0.54611844     0.98800
C174        C  0.15949813  0.40944884  0.49920415     1.04700
O175        O  0.11119695  0.38171252  0.53204261    -0.77900
C176        C  0.13871600  0.25468130  0.51778589     1.03000
Fe177      Fe  0.67280135  0.80611848  0.76711292     1.65800
Fe178      Fe  0.62816852  0.84043619  0.73320386     1.73200
Fe179      Fe  0.67964087  0.89002689  0.75025222     1.54400
O180        O  0.68996050  0.88497107  0.78294216    -0.81600
O181        O  0.64668336  0.85680234  0.70611033    -0.80000
O182        O  0.67135710  0.83517209  0.79423149    -0.84200
O183        O  0.71218982  0.81855155  0.76299179    -0.79000
O184        O  0.64608010  0.91804105  0.75935433    -0.80800
O185        O  0.63752262  0.78919506  0.72406219    -0.83500
C186        C  0.72477959  0.83766106  0.74990283     0.97200
C187        C  0.68292198  0.86401494  0.79788862     1.04700
O188        O  0.66014520  0.84575687  0.75017605    -1.12500
O189        O  0.60705436  0.82397519  0.75914937    -0.74900
O190        O  0.63535233  0.78673353  0.77430134    -0.78400
O191        O  0.71431525  0.86423729  0.74077517    -0.79100
C192        C  0.61213567  0.79894315  0.77181057     0.96100
O193        O  0.67516586  0.77506559  0.74056990    -0.77100
O194        O  0.61477310  0.89076846  0.74020470    -0.82300
C195        C  0.65920801  0.88499219  0.70297520     0.98800
C196        C  0.62250025  0.91616218  0.75193663     1.04700
O197        O  0.67100787  0.90162743  0.71795003    -0.77900
C198        C  0.65749731  0.76898793  0.72659830     1.03000
Fe199      Fe  0.60526481  0.80065468  0.48985203     1.65800
Fe200      Fe  0.64205380  0.83361680  0.53018129     1.73200
Fe201      Fe  0.59565253  0.88479832  0.50634179     1.54400
O202        O  0.59198888  0.88155994  0.47295582    -0.81600
O203        O  0.61714397  0.84895036  0.55397016    -0.80000
O204        O  0.60970782  0.83046573  0.46302243    -0.84200
O205        O  0.56515916  0.81154247  0.49083556    -0.79000
O206        O  0.63109337  0.91228613  0.50226645    -0.80800
O207        O  0.63180667  0.78217292  0.53757548    -0.83500
C208        C  0.55022234  0.83226672  0.50118422     0.97200
C209        C  0.60018201  0.86034148  0.45868082     1.04700
O210        O  0.61443288  0.83979668  0.50863295    -1.12500
O211        O  0.66894871  0.81707962  0.50789346    -0.74900
O212        O  0.64425507  0.78402723  0.48633286    -0.78400
O213        O  0.55901490  0.85972820  0.51051092    -0.79100
C214        C  0.66668794  0.79409866  0.49332091     0.96100
O215        O  0.59966494  0.76712331  0.51508631    -0.77100
O216        O  0.65656728  0.88434549  0.52602390    -0.82300
C217        C  0.60517447  0.87792150  0.55556256     0.98800
C218        C  0.65246592  0.90985440  0.51324425     1.04700
O219        O  0.59754676  0.89548116  0.53929133    -0.77900
C220        C  0.61379506  0.76104220  0.53148397     1.03000
Fe221      Fe  0.41333625  0.72407992  0.96888795     1.65800
Fe222      Fe  0.38260071  0.69275344  0.01366479     1.73200
Fe223      Fe  0.43239492  0.64474098  0.99053387     1.54400
O224        O  0.42700696  0.63768251  0.95710025    -0.81600
O225        O  0.40740018  0.67753681  0.03793791    -0.80000
O226        O  0.41425617  0.68933515  0.94396086    -0.84200
O227        O  0.45402506  0.72497667  0.97165661    -0.79000
O228        O  0.40047712  0.61054963  0.99444760    -0.80800
O229        O  0.39274067  0.74407091  0.02019694    -0.83500
C230        C  0.47197908  0.70533550  0.97942081     0.97200
C231        C  0.41926428  0.65711825  0.94158731     1.04700
O232        O  0.40957379  0.68716059  0.99111316    -1.12500
O233        O  0.35361254  0.70802162  0.99251904    -0.74900
O234        O  0.37300989  0.72784969  0.96314783    -0.78400
O235        O  0.46702930  0.67496152  0.98706397    -0.79100
C236        C  0.35236386  0.72040449  0.97375422     0.96100
O237        O  0.41248257  0.76418863  0.99084224    -0.77100
O238        O  0.36896656  0.64226361  0.01003502    -0.82300
C239        C  0.42714852  0.65732357  0.04004373     0.98800
C240        C  0.37742221  0.61345723  0.00249874     1.04700
O241        O  0.43939692  0.64430894  0.02402722    -0.77900
C242        C  0.40392502  0.76839294  0.00972134     1.03000
Fe243      Fe  0.37254460  0.72746818  0.76543539     1.65800
Fe244      Fe  0.40230932  0.69850794  0.71966955     1.73200
Fe245      Fe  0.35185145  0.65051748  0.74197416     1.54400
O246        O  0.35725817  0.64012350  0.77483106    -0.81600
O247        O  0.37656493  0.68568689  0.69527191    -0.80000
O248        O  0.36871206  0.69113229  0.78941594    -0.84200
O249        O  0.33224605  0.73160232  0.76148957    -0.79000
O250        O  0.38311190  0.61527313  0.73652353    -0.80800
O251        O  0.39303220  0.75068334  0.71414822    -0.83500
C252        C  0.31387114  0.71246484  0.75400951     0.97200
C253        C  0.36371154  0.65876500  0.79095893     1.04700
O254        O  0.37554466  0.69211809  0.74234955    -1.12500
O255        O  0.43158325  0.71256125  0.74102024    -0.74900
O256        O  0.41268719  0.72758973  0.77190151    -0.78400
O257        O  0.31796577  0.68161420  0.74682609    -0.79100
C258        C  0.43295632  0.72271046  0.76034861     0.96100
O259        O  0.37624678  0.76950135  0.74494800    -0.77100
O260        O  0.41538572  0.64744576  0.72248474    -0.82300
C261        C  0.35491232  0.66921026  0.69325265     0.98800
C262        C  0.40649262  0.61823001  0.72895859     1.04700
O263        O  0.34358199  0.65471823  0.70916568    -0.77900
C264        C  0.38398412  0.77494722  0.72594670     1.03000
Fe265      Fe  0.11720233  0.81375126  0.97384182     1.65800
Fe266      Fe  0.15969795  0.83899440  0.01325844     1.73200
Fe267      Fe  0.10953257  0.89377884  0.99795902     1.54400
O268        O  0.10145944  0.89891330  0.96537033    -0.81600
O269        O  0.14018740  0.85193950  0.04061112    -0.80000
O270        O  0.11421477  0.84925246  0.94976048    -0.84200
O271        O  0.07778949  0.82027896  0.98192039    -0.79000
O272        O  0.14403058  0.92286669  0.99352315    -0.80800
O273        O  0.14945317  0.78720926  0.01931681    -0.83500
C274        C  0.06423054  0.84000776  0.99412566     0.97200
C275        C  0.10581222  0.88034171  0.94890650     1.04700
O276        O  0.12882285  0.84885874  0.99496793    -1.12500
O277        O  0.18254829  0.82485062  0.98782039    -0.74900
O278        O  0.15528569  0.80301030  0.96304382    -0.78400
O279        O  0.07368954  0.86754590  0.00288901    -0.79100
C280        C  0.17840139  0.81035013  0.96988822     0.96100
O281        O  0.11874937  0.77344839  0.99531532    -0.77100
O282        O  0.17441193  0.88952596  0.00971112    -0.82300
C283        C  0.12664151  0.87879534  0.04504633     0.98800
C284        C  0.16738785  0.91828259  0.00102518     1.04700
O285        O  0.11506668  0.89733128  0.03091992    -0.77900
C286        C  0.13293177  0.76567904  0.01134853     1.03000
Fe287      Fe  0.16477801  0.80716489  0.25964523     1.65800
Fe288      Fe  0.12765232  0.84559154  0.22192423     1.73200
Fe289      Fe  0.17675751  0.89140737  0.24574623     1.54400
O290        O  0.18220137  0.88470136  0.27888791    -0.81600
O291        O  0.15283874  0.85880569  0.19813832    -0.80000
O292        O  0.16188666  0.83483701  0.28704707    -0.84200
O293        O  0.20517690  0.81582051  0.25791865    -0.79000
O294        O  0.14239010  0.91964477  0.25225612    -0.80800
O295        O  0.13399509  0.79314651  0.21382570    -0.83500
C296        C  0.22037166  0.83652175  0.24776810     0.97200
C297        C  0.17309771  0.86304080  0.29257266     1.04700
O298        O  0.15641153  0.84811447  0.24256457    -1.12500
O299        O  0.10122795  0.83191044  0.24499879    -0.74900
O300        O  0.12511310  0.79318506  0.26374318    -0.78400
O301        O  0.21211404  0.86510705  0.23947550    -0.79100
C302        C  0.10310024  0.80726947  0.25851945     0.96100
O303        O  0.16866471  0.77636923  0.23323552    -0.77100
O304        O  0.11649007  0.89751240  0.22679788    -0.82300
C305        C  0.16581834  0.88699477  0.19672205     0.98800
C306        C  0.12098884  0.92016139  0.24129184     1.04700
O307        O  0.17367758  0.90427742  0.21303786    -0.77900
C308        C  0.15237302  0.77134143  0.21811756     1.03000
Fe309      Fe  0.86637201  0.72176868  0.27865502     1.65800
Fe310      Fe  0.90016980  0.69295465  0.23536904     1.73200
Fe311      Fe  0.85202380  0.64116364  0.25712445     1.54400
O312        O  0.85467657  0.63519021  0.29074811    -0.81600
O313        O  0.87399475  0.68375635  0.21078492    -0.80000
O314        O  0.86835470  0.68683836  0.30325012    -0.84200
O315        O  0.82583465  0.71722622  0.27647556    -0.79000
O316        O  0.88554775  0.60951000  0.25524555    -0.80800
O317        O  0.89285599  0.74621842  0.23178734    -0.83500
C318        C  0.80924208  0.69682649  0.26763606     0.97200
C319        C  0.86265389  0.65488425  0.30601943     1.04700
O320        O  0.87272660  0.68520750  0.25704783    -1.12500
O321        O  0.92838583  0.70230032  0.25851833    -0.74900
O322        O  0.90632313  0.73137143  0.28380483    -0.78400
O323        O  0.81597975  0.66816650  0.25874151    -0.79100
C324        C  0.92772046  0.71992687  0.27574403     0.96100
O325        O  0.86376924  0.76128511  0.25649671    -0.77100
O326        O  0.91267358  0.64143453  0.23524478    -0.82300
C327        C  0.85657053  0.66014960  0.20821255     0.98800
C328        C  0.90683074  0.61298604  0.24464533     1.04700
O329        O  0.84786422  0.64114698  0.22352349    -0.77900
C330        C  0.87760689  0.76867852  0.24030191     1.03000
Fe331      Fe  0.90566056  0.70796662  0.48774130     1.65800
Fe332      Fe  0.88246843  0.67203473  0.53356257     1.73200
Fe333      Fe  0.93162093  0.63076830  0.50581307     1.54400
O334        O  0.92627890  0.62747183  0.47226599    -0.81600
O335        O  0.91285582  0.66567061  0.55480249    -0.80000
O336        O  0.90132380  0.67342529  0.46302859    -0.84200
O337        O  0.94650547  0.70956181  0.48470755    -0.79000
O338        O  0.90132762  0.59415487  0.50847574    -0.80800
O339        O  0.88640560  0.72613210  0.53808946    -0.83500
C340        C  0.96615801  0.69369305  0.49308383     0.97200
C341        C  0.91196166  0.64424665  0.45877559     1.04700
O342        O  0.90664430  0.67021089  0.50905675    -1.12500
O343        O  0.84981271  0.67831305  0.51426136    -0.74900
O344        O  0.86468232  0.71199009  0.48791716    -0.78400
O345        O  0.96372383  0.66468358  0.50298785    -0.79100
C346        C  0.84585701  0.69699608  0.49774720     0.96100
O347        O  0.90953558  0.74622362  0.51048338    -0.77100
O348        O  0.87476030  0.61852020  0.53273610    -0.82300
C349        C  0.93267886  0.64531265  0.55526172     0.98800
C350        C  0.88128329  0.59299222  0.52075459     1.04700
O351        O  0.94022870  0.62799866  0.53888232    -0.77900
C352        C  0.89897775  0.75056708  0.52864042     1.03000
Fe353      Fe  0.86903024  0.04874185  0.48359705     1.65800
Fe354      Fe  0.90022060  0.07772125  0.52863747     1.73200
Fe355      Fe  0.85071933  0.12729112  0.50605029     1.54400
O356        O  0.85686301  0.13663555  0.47344114    -0.81600
O357        O  0.87735240  0.09798328  0.55269576    -0.80000
O358        O  0.86459560  0.08443438  0.45895650    -0.84200
O359        O  0.82872000  0.04590346  0.48851664    -0.79000
O360        O  0.88334245  0.16025999  0.51142060    -0.80800
O361        O  0.88658427  0.02836728  0.53656840    -0.83500
C362        C  0.81072302  0.06678123  0.49480008     0.97200
C363        C  0.86166547  0.11731985  0.45734242     1.04700
O364        O  0.87316015  0.08461262  0.50615144    -1.12500
O365        O  0.92772867  0.05635621  0.50829417    -0.74900
O366        O  0.90902314  0.04797141  0.47635453    -0.78400
O367        O  0.81575214  0.09810458  0.50088048    -0.79100
C368        C  0.92912824  0.04842172  0.48863851     0.96100
O369        O  0.87356939  0.00736974  0.50492871    -0.77100
O370        O  0.91662404  0.12612291  0.52255605    -0.82300
C371        C  0.85582645  0.11471029  0.55483613     0.98800
C372        C  0.90763728  0.15577686  0.51662764     1.04700
O373        O  0.84230133  0.12511382  0.53879399    -0.77900
C374        C  0.87912281  0.00320135  0.52467002     1.03000
Fe375      Fe  0.91104185  0.06303946  0.28156405     1.65800
Fe376      Fe  0.87773306  0.09414546  0.23797669     1.73200
Fe377      Fe  0.92802705  0.14298362  0.26001102     1.54400
O378        O  0.92351766  0.15065541  0.29306926    -0.81600
O379        O  0.89972555  0.11508111  0.21354470    -0.80000
O380        O  0.91531969  0.09765379  0.30630652    -0.84200
O381        O  0.95113999  0.06130466  0.27626806    -0.79000
O382        O  0.89534099  0.17623244  0.25588399    -0.80800
O383        O  0.89106900  0.04510051  0.22906138    -0.83500
C384        C  0.96849238  0.08243120  0.26934210     0.97200
C385        C  0.91872163  0.13027175  0.30872808     1.04700
O386        O  0.90569633  0.10014076  0.25981583    -1.12500
O387        O  0.85098282  0.07228739  0.25890439    -0.74900
O388        O  0.87147936  0.06017763  0.28961029    -0.78400
O389        O  0.96307285  0.11375008  0.26355601    -0.79100
C390        C  0.85068748  0.06190348  0.27820832     0.96100
O391        O  0.90698480  0.02300897  0.25958930    -0.77100
O392        O  0.86172603  0.14232508  0.24491286    -0.82300
C393        C  0.92110329  0.13202439  0.21118343     0.98800
C394        C  0.87098474  0.17164965  0.25097259     1.04700
O395        O  0.93499952  0.14219412  0.22704616    -0.77900
C396        C  0.90032348  0.01979339  0.24004378     1.03000
Fe397      Fe  0.10934839  0.98223447  0.76204890     1.65800
Fe398      Fe  0.14621026  0.95366774  0.72118454     1.73200
Fe399      Fe  0.10193013  0.89936064  0.74437190     1.54400
O400        O  0.09678020  0.90256831  0.77779767    -0.81600
O401        O  0.12160101  0.93744889  0.69721657    -0.80000
O402        O  0.11755631  0.95135622  0.78767125    -0.84200
O403        O  0.06984165  0.96739540  0.76202402    -0.79000
O404        O  0.13825193  0.87472370  0.74908760    -0.80800
O405        O  0.13312414  0.00473729  0.71474803    -0.83500
C406        C  0.05543479  0.94814476  0.75006619     0.97200
C407        C  0.10577480  0.92310941  0.79222578     1.04700
O408        O  0.11930373  0.94503123  0.74254069    -1.12500
O409        O  0.17286567  0.97082183  0.74364140    -0.74900
O410        O  0.14738572  0.00292352  0.76496111    -0.78400
O411        O  0.06501943  0.92258253  0.73948533    -0.79100
C412        C  0.17003201  0.99348453  0.75825869     0.96100
O413        O  0.10036721  0.01525902  0.73744576    -0.77100
O414        O  0.16267447  0.90362740  0.72510153    -0.82300
C415        C  0.11122999  0.90748409  0.69521465     0.98800
C416        C  0.15944477  0.87820892  0.73816304     1.04700
O417        O  0.10466225  0.88904476  0.71136970    -0.77900
C418        C  0.11379143  0.02353613  0.72118988     1.03000
Fe419      Fe  0.17247224  0.96516821  0.48086266     1.65800
Fe420      Fe  0.13072290  0.93528491  0.51765749     1.73200
Fe421      Fe  0.17876873  0.88213835  0.49892905     1.54400
O422        O  0.18563809  0.88491375  0.46563291    -0.81600
O423        O  0.15238845  0.92095338  0.54382618    -0.80000
O424        O  0.16669635  0.93487663  0.45478011    -0.84200
O425        O  0.21191489  0.95047198  0.48252731    -0.79000
O426        O  0.14359982  0.85562909  0.49214744    -0.80800
O427        O  0.14104282  0.98749370  0.52384972    -0.83500
C428        C  0.22512083  0.93269545  0.49608899     0.97200
C429        C  0.17587238  0.90465954  0.45098402     1.04700
O430        O  0.16058811  0.92724010  0.49913430    -1.12500
O431        O  0.10732582  0.94961796  0.49233013    -0.74900
O432        O  0.13465658  0.98642460  0.47595197    -0.78400
O433        O  0.21488166  0.90690048  0.50611271    -0.79100
C434        C  0.11151984  0.97464972  0.47951227     0.96100
O435        O  0.17877396  0.99670530  0.50669942    -0.77100
O436        O  0.11615023  0.88473314  0.51367945    -0.82300
C437        C  0.16329252  0.89150680  0.54701387     0.98800
C438        C  0.12118768  0.85907715  0.50131830     1.04700
O439        O  0.17267518  0.87286354  0.53185734    -0.77900
C440        C  0.16129779  0.00641174  0.51986289     1.03000
Fe441      Fe  0.67288463  0.97547039  0.97803857     1.65800
Fe442      Fe  0.62827082  0.95109494  0.01478226     1.73200
Fe443      Fe  0.67994592  0.89809444  0.00364222     1.54400
O444        O  0.69096692  0.89375613  0.97121826    -0.81600
O445        O  0.64728874  0.94368408  0.04346990    -0.80000
O446        O  0.67183487  0.93899778  0.95441686    -0.84200
O447        O  0.71258516  0.96533051  0.98439364    -0.79000
O448        O  0.64654399  0.86817008  0.99650871    -0.80800
O449        O  0.63629852  0.00471331  0.01756371    -0.83500
C450        C  0.72452355  0.95109415  0.00013994     0.97200
C451        C  0.68327612  0.90950776  0.95421613     1.04700
O452        O  0.66030275  0.94143821  0.99883239    -1.12500
O453        O  0.60689819  0.95906145  0.98718953    -0.74900
O454        O  0.63511613  0.99137675  0.96845299    -0.78400
O455        O  0.71393333  0.92677709  0.01119336    -0.79100
C456        C  0.61180645  0.98040625  0.97215253     0.96100
O457        O  0.67449642  0.01374151  0.00077350    -0.77100
O458        O  0.61587091  0.89902932  0.01374224    -0.82300
C459        C  0.66009849  0.91691907  0.04966234     0.98800
C460        C  0.62296170  0.87175920  0.00351306     1.04700
O461        O  0.67113865  0.89589128  0.03654998    -0.77900
C462        C  0.65583007  0.02428793  0.01260555     1.03000
Fe463      Fe  0.61499420  0.97624859  0.27740419     1.65800
Fe464      Fe  0.66042821  0.94604084  0.24223189     1.73200
Fe465      Fe  0.60537316  0.89698492  0.25280417     1.54400
O466        O  0.59633625  0.89240611  0.28545176    -0.81600
O467        O  0.64434764  0.93447727  0.21304610    -0.80000
O468        O  0.61116887  0.94103530  0.30156257    -0.84200
O469        O  0.57568024  0.97095890  0.26913119    -0.79000
O470        O  0.63762936  0.86389683  0.25849847    -0.80800
O471        O  0.65312783  0.99850063  0.23564574    -0.83500
C472        C  0.56157205  0.95255660  0.25662139     0.97200
C473        C  0.60182011  0.91032554  0.30213327     1.04700
O474        O  0.62681971  0.93967708  0.25734871    -1.12500
O475        O  0.68076232  0.95733860  0.26985816    -0.74900
O476        O  0.65235438  0.98783860  0.28945507    -0.78400
O477        O  0.57072214  0.92584169  0.24687311    -0.79100
C478        C  0.67551360  0.97656407  0.28577767     0.96100
O479        O  0.61796406  0.01445236  0.25459622    -0.77100
O480        O  0.67193434  0.89479443  0.24663342    -0.82300
C481        C  0.62787543  0.91159551  0.20687616     0.98800
C482        C  0.66219634  0.86677779  0.25415262     1.04700
O483        O  0.61252808  0.89522329  0.21963319    -0.77900
C484        C  0.63513469  0.02055600  0.24035974     1.03000
Fe485      Fe  0.37719999  0.07350914  0.97467308     1.65800
Fe486      Fe  0.40761859  0.09748368  0.02122072     1.73200
Fe487      Fe  0.35650525  0.14761865  0.00142757     1.54400
O488        O  0.36192740  0.16161089  0.96917379    -0.81600
O489        O  0.38358922  0.11063486  0.04636509    -0.80000
O490        O  0.37537555  0.11300025  0.95266207    -0.84200
O491        O  0.33674545  0.07043207  0.97752085    -0.79000
O492        O  0.38783503  0.18159413  0.00849920    -0.80800
O493        O  0.39659531  0.04570587  0.02532205    -0.83500
C494        C  0.31831222  0.08823991  0.98591607     0.97200
C495        C  0.37025626  0.14541997  0.95269001     1.04700
O496        O  0.38032370  0.10620879  0.99918118    -1.12500
O497        O  0.43633097  0.08364444  0.99958300    -0.74900
O498        O  0.41723164  0.07165583  0.96845871    -0.78400
O499        O  0.32250118  0.11762724  0.99506528    -0.79100
C500        C  0.43770766  0.07488964  0.98004407     0.96100
O501        O  0.37970652  0.02974645  0.99377015    -0.77100
O502        O  0.42149152  0.14796157  0.01925299    -0.82300
C503        C  0.36217553  0.12720350  0.04949256     0.98800
C504        C  0.41176163  0.17778933  0.01488111     1.04700
O505        O  0.34879218  0.14061340  0.03417057    -0.77900
C506        C  0.38705594  0.02269484  0.01274919     1.03000
Fe507      Fe  0.41059004  0.07339532  0.77149358     1.65800
Fe508      Fe  0.39017499  0.10865996  0.72426117     1.73200
Fe509      Fe  0.43623201  0.15127268  0.75477304     1.54400
O510        O  0.43087876  0.15364037  0.78832010    -0.81600
O511        O  0.42190573  0.11638175  0.70460923    -0.80000
O512        O  0.40642243  0.10740624  0.79610639    -0.84200
O513        O  0.45158384  0.07123908  0.77473806    -0.79000
O514        O  0.40449358  0.18596407  0.75209978    -0.80800
O515        O  0.39526431  0.05477782  0.71964171    -0.83500
C516        C  0.47117980  0.08741535  0.76655385     0.97200
C517        C  0.41676407  0.13621427  0.80142424     1.04700
O518        O  0.41237906  0.11098195  0.75014911    -1.12500
O519        O  0.35636656  0.10049815  0.74157663    -0.74900
O520        O  0.36949635  0.07088948  0.77055670    -0.78400
O521        O  0.46882242  0.11745771  0.75762745    -0.79100
C522        C  0.35140299  0.08376418  0.75865905     0.96100
O523        O  0.41386874  0.03434130  0.74942941    -0.77100
O524        O  0.38119624  0.16212557  0.72526135    -0.82300
C525        C  0.43944194  0.14003066  0.70504044     0.98800
C526        C  0.38531534  0.18668273  0.73870455     1.04700
O527        O  0.44514761  0.15714435  0.72198496    -0.77900
C528        C  0.40549078  0.02991938  0.73052575     1.03000
Fe529      Fe  0.16659332  0.46887572  0.97504091     1.65800
Fe530      Fe  0.12567578  0.43928095  0.01299184     1.73200
Fe531      Fe  0.18129816  0.39278805  0.00089581     1.54400
O532        O  0.18892117  0.38773193  0.96789063    -0.81600
O533        O  0.14599472  0.43388724  0.04089265    -0.80000
O534        O  0.16757599  0.43196690  0.95154129    -0.84200
O535        O  0.20693140  0.46438364  0.97962764    -0.79000
O536        O  0.14999082  0.35728335  0.99758596    -0.80800
O537        O  0.13095748  0.49301325  0.01640319    -0.83500
C538        C  0.22210851  0.45050094  0.99351555     0.97200
C539        C  0.18114317  0.40393872  0.95103769     1.04700
O540        O  0.15781887  0.43328072  0.99628269    -1.12500
O541        O  0.10220445  0.44539791  0.98630106    -0.74900
O542        O  0.12745035  0.48077567  0.96697592    -0.78400
O543        O  0.21448959  0.42485926  0.00497282    -0.79100
C544        C  0.10493328  0.46828678  0.97180916     0.96100
O545        O  0.16673729  0.50738951  0.99775786    -0.77100
O546        O  0.11649866  0.38669601  0.01214102    -0.82300
C547        C  0.16402264  0.41316265  0.04710704     0.98800
C548        C  0.12624142  0.35869519  0.00445222     1.04700
O549        O  0.17687812  0.39345364  0.03432981    -0.77900
C550        C  0.14934150  0.51449242  0.01164678     1.03000
Fe551      Fe  0.11566286  0.48001447  0.27414134     1.65800
Fe552      Fe  0.16530343  0.45154695  0.24333690     1.73200
Fe553      Fe  0.10906858  0.40287081  0.24734671     1.54400
O554        O  0.09603765  0.39733883  0.27911530    -0.81600
O555        O  0.15291212  0.44369342  0.21270099    -0.80000
O556        O  0.11190894  0.44339601  0.29760678    -0.84200
O557        O  0.07667043  0.47236989  0.26515591    -0.79000
O558        O  0.14005223  0.36835094  0.25459279    -0.80800
O559        O  0.15919560  0.50528802  0.23857112    -0.83500
C560        C  0.06477178  0.45679335  0.25001050     0.97200
C561        C  0.10131000  0.41327498  0.29664734     1.04700
O562        O  0.12993047  0.44451003  0.25475548    -1.12500
O563        O  0.18123177  0.45862479  0.27314359    -0.74900
O564        O  0.15210007  0.49513111  0.28714156    -0.78400
O565        O  0.07582613  0.43287023  0.23902588    -0.79100
C566        C  0.17520555  0.48197264  0.28655662     0.96100
O567        O  0.11884003  0.51748154  0.25081650    -0.77100
O568        O  0.17583568  0.39943518  0.24619211    -0.82300
C569        C  0.13776604  0.42096324  0.20436712     0.98800
C570        C  0.16490033  0.37064802  0.25120933     1.04700
O571        O  0.12081468  0.40344741  0.21510394    -0.77900
C572        C  0.13926990  0.52578909  0.24019055     1.03000
Fe573      Fe  0.86983135  0.57354310  0.97922193     1.65800
Fe574      Fe  0.90331007  0.60241973  0.02280247     1.73200
Fe575      Fe  0.85281386  0.65174068  0.00219756     1.54400
O576        O  0.85917046  0.66246495  0.96998970    -0.81600
O577        O  0.88275542  0.62584194  0.04747133    -0.80000
O578        O  0.86344795  0.60955921  0.95523197    -0.84200
O579        O  0.83021522  0.57045811  0.98542941    -0.79000
O580        O  0.88550721  0.68443012  0.00877357    -0.80800
O581        O  0.88836713  0.55442792  0.03219357    -0.83500
C582        C  0.81230750  0.59246426  0.98998779     0.97200
C583        C  0.86177852  0.64264061  0.95379967     1.04700
O584        O  0.87514060  0.60927545  0.00141387    -1.12500
O585        O  0.92878478  0.57741899  0.00193114    -0.74900
O586        O  0.90912149  0.57233002  0.97024116    -0.78400
O587        O  0.81753406  0.62396206  0.99553788    -0.79100
C588        C  0.92928236  0.56916047  0.98224182     0.96100
O589        O  0.87574417  0.53272214  0.00055273    -0.77100
O590        O  0.92024904  0.64950315  0.01466135    -0.82300
C591        C  0.85986282  0.63881087  0.05011750     0.98800
C592        C  0.91043052  0.67978956  0.01137881     1.04700
O593        O  0.84437770  0.64595699  0.03460044    -0.77900
C594        C  0.88100706  0.52905128  0.02038394     1.03000
Fe595      Fe  0.90977982  0.55866981  0.78213468     1.65800
Fe596      Fe  0.87604241  0.58298981  0.73719609     1.73200
Fe597      Fe  0.92500313  0.63577259  0.75687675     1.54400
O598        O  0.91726986  0.64850360  0.78877250    -0.81600
O599        O  0.89847167  0.60071018  0.71214484    -0.80000
O600        O  0.91505059  0.59655464  0.80498253    -0.84200
O601        O  0.94961738  0.55626738  0.77596627    -0.79000
O602        O  0.89232357  0.66731316  0.74885332    -0.80800
O603        O  0.89017916  0.53353242  0.73084202    -0.83500
C604        C  0.96668138  0.57850068  0.76988966     0.97200
C605        C  0.91505972  0.62970967  0.80553166     1.04700
O606        O  0.90366039  0.59252010  0.75873132    -1.12500
O607        O  0.84977015  0.56321822  0.75921177    -0.74900
O608        O  0.87038834  0.55772239  0.79074129    -0.78400
O609        O  0.96055396  0.60965925  0.76429722    -0.79100
C610        C  0.84972690  0.55666665  0.77913180     0.96100
O611        O  0.90497931  0.51545278  0.76264312    -0.77100
O612        O  0.85891188  0.63134113  0.74124142    -0.82300
C613        C  0.92113896  0.61407837  0.70937137     0.98800
C614        C  0.86789010  0.66186228  0.74457305     1.04700
O615        O  0.93440811  0.62723139  0.72478987    -0.77900
C616        C  0.89883887  0.50972399  0.74322215     1.03000
Fe617      Fe  0.61067182  0.48542019  0.76906388     1.65800
Fe618      Fe  0.65770484  0.45159214  0.73605018     1.73200
Fe619      Fe  0.60357014  0.40163793  0.74953351     1.54400
O620        O  0.59666292  0.40000757  0.78247363    -0.81600
O621        O  0.64185394  0.43355613  0.70801345    -0.80000
O622        O  0.60406289  0.45406270  0.79483337    -0.84200
O623        O  0.57223310  0.47965957  0.75882693    -0.79000
O624        O  0.63688327  0.37045496  0.75520389    -0.80800
O625        O  0.64946403  0.50221249  0.72563814    -0.83500
C626        C  0.55822277  0.45699590  0.74924537     0.97200
C627        C  0.59844014  0.42211365  0.79768175     1.04700
O628        O  0.62392001  0.44612655  0.75150455    -1.12500
O629        O  0.67747721  0.47001133  0.76249292    -0.74900
O630        O  0.64720576  0.49753169  0.78223055    -0.78400
O631        O  0.56734171  0.42726886  0.74356683    -0.79100
C632        C  0.67093666  0.48896640  0.77823726     0.96100
O633        O  0.61585647  0.52132138  0.74516041    -0.77100
O634        O  0.67110838  0.40220844  0.74420078    -0.82300
C635        C  0.62415833  0.41149715  0.70295777     0.98800
C636        C  0.66155101  0.37394605  0.75163300     1.04700
O637        O  0.60877229  0.39716683  0.71650379    -0.77900
C638        C  0.63260500  0.52569522  0.73041616     1.03000
Fe639      Fe  0.66487017  0.48619845  0.48728017     1.65800
Fe640      Fe  0.61471585  0.44560138  0.51372767     1.73200
Fe641      Fe  0.67153982  0.40052165  0.50269699     1.54400
O642        O  0.67655552  0.40116932  0.46980513    -0.81600
O643        O  0.62588637  0.41677532  0.54002593    -0.80000
O644        O  0.68021006  0.45814198  0.46213081    -0.84200
O645        O  0.69971770  0.48310808  0.50408314    -0.79000
O646        O  0.63888270  0.36754002  0.49802365    -0.80800
O647        O  0.62243846  0.49093346  0.53110524    -0.83500
C648        C  0.71525203  0.45808680  0.50875720     0.97200
C649        C  0.68060751  0.42611810  0.45668249     1.04700
O650        O  0.65040478  0.44413611  0.50131493    -1.12500
O651        O  0.59891354  0.47384860  0.48868951    -0.74900
O652        O  0.63168390  0.49467287  0.46852472    -0.78400
O653        O  0.70796919  0.42618110  0.50763071    -0.79100
C654        C  0.60731734  0.48974826  0.47222230     0.96100
O655        O  0.65109569  0.51968589  0.51059289    -0.77100
O656        O  0.60270417  0.40079876  0.49804813    -0.82300
C657        C  0.64634116  0.40088719  0.54692519     0.98800
C658        C  0.61397820  0.37141805  0.49540034     1.04700
O659        O  0.66710526  0.39639593  0.53569328    -0.77900
C660        C  0.63608641  0.51803512  0.52682007     1.03000
Fe661      Fe  0.36836970  0.55472292  0.46930949     1.65800
Fe662      Fe  0.39787913  0.58385561  0.51524108     1.73200
Fe663      Fe  0.34857439  0.63296145  0.49186508     1.54400
O664        O  0.35634556  0.64304748  0.45937476    -0.81600
O665        O  0.37212532  0.59839900  0.53877625    -0.80000
O666        O  0.36736177  0.59137008  0.44529407    -0.84200
O667        O  0.32774454  0.55323750  0.47133035    -0.79000
O668        O  0.37972932  0.66726186  0.49922488    -0.80800
O669        O  0.38691768  0.53246357  0.52090308    -0.83500
C670        C  0.30944156  0.57357218  0.47749024     0.97200
C671        C  0.36319049  0.62399165  0.44355309     1.04700
O672        O  0.37156187  0.59057749  0.49213692    -1.12500
O673        O  0.42740861  0.56862764  0.49473857    -0.74900
O674        O  0.40874953  0.55116906  0.46425887    -0.78400
O675        O  0.31420612  0.60405240  0.48493789    -0.79100
C676        C  0.42902859  0.55694712  0.47578547     0.96100
O677        O  0.36917216  0.51322423  0.49046302    -0.77100
O678        O  0.41203428  0.63423576  0.51266889    -0.82300
C679        C  0.35035330  0.61458238  0.54053148     0.98800
C680        C  0.40301601  0.66386258  0.50704631     1.04700
O681        O  0.33865194  0.62833073  0.52439938    -0.77900
C682        C  0.37648156  0.50833313  0.50969907     1.03000
Fe683      Fe  0.40468031  0.56980487  0.27130198     1.65800
Fe684      Fe  0.37362356  0.59660957  0.22529899     1.73200
Fe685      Fe  0.42570742  0.64456891  0.24564014     1.54400
O686        O  0.42124475  0.65720694  0.27813368    -0.81600
O687        O  0.39931087  0.60604951  0.20015304    -0.80000
O688        O  0.40975575  0.60738037  0.29418084    -0.84200
O689        O  0.44476406  0.56435110  0.26700845    -0.79000
O690        O  0.39535368  0.68003508  0.23944887    -0.80800
O691        O  0.38123026  0.54372966  0.22137648    -0.83500
C692        C  0.46299624  0.58279126  0.25881767     0.97200
C693        C  0.41497329  0.63971281  0.29472377     1.04700
O694        O  0.40137616  0.60369528  0.24735730    -1.12500
O695        O  0.34459202  0.58598693  0.24785315    -0.74900
O696        O  0.36486251  0.57126797  0.27823602    -0.78400
O697        O  0.45904794  0.61327802  0.25108472    -0.79100
C698        C  0.34389272  0.57684290  0.26743489     0.96100
O699        O  0.39963220  0.52682863  0.25212093    -0.77100
O700        O  0.36201300  0.64844113  0.22620566    -0.82300
C701        C  0.42087308  0.62271972  0.19756191     0.98800
C702        C  0.37203629  0.67758551  0.23170785     1.04700
O703        O  0.43270117  0.63835789  0.21288102    -0.77900
C704        C  0.39077814  0.52023888  0.23355969     1.03000
C705        C  0.36756124  0.63958142  0.42203968    -0.11900
C706        C  0.35810739  0.62244130  0.40346222     0.03500
C707        C  0.36702389  0.63260401  0.38322462    -0.12500
C708        C  0.38559862  0.65962851  0.38086166     0.18400
C709        C  0.39393774  0.67830669  0.39920175    -0.09500
C710        C  0.38482933  0.66828862  0.41962347    -0.02500
H711        H  0.36021994  0.61828541  0.36923846     0.04900
C712        C  0.39704883  0.66520076  0.35919177     0.20400
H713        H  0.39241837  0.68166308  0.43368688     0.10100
C714        C  0.38042549  0.67717625  0.34256514    -0.15900
C715        C  0.38760523  0.67293535  0.32101867     0.03100
C716        C  0.41187650  0.65675067  0.31578985    -0.11200
C717        C  0.42935578  0.64723200  0.33240104    -0.01200
C718        C  0.42214082  0.65124863  0.35394418    -0.06400
H719        H  0.36086385  0.68719436  0.34632042     0.06100
H720        H  0.44766489  0.63369833  0.32861857     0.09500
Br721      Br  0.41829542  0.71672223  0.39708583    -0.06100
Br722      Br  0.33334045  0.58431814  0.40470962    -0.03000
Br723      Br  0.36184450  0.68430560  0.29929689    -0.00200
Br724      Br  0.44551007  0.63225638  0.37541402    -0.04500
C725        C  0.58716135  0.50386018  0.45759886    -0.11900
C726        C  0.58108439  0.53985694  0.45806269     0.03500
C727        C  0.55523379  0.55082719  0.45328938    -0.12500
C728        C  0.53556751  0.52608747  0.44824641     0.18400
C729        C  0.54291367  0.49115579  0.44422260    -0.09500
C730        C  0.56875321  0.48025627  0.44888830    -0.02500
H731        H  0.54968900  0.57782202  0.45633773     0.04900
C732        C  0.50810271  0.53397425  0.45451169     0.20400
H733        H  0.57354961  0.45261599  0.44812619     0.10100
C734        C  0.48884072  0.54327437  0.43925647    -0.15900
C735        C  0.46270244  0.55056732  0.44556991     0.03100
C736        C  0.45582493  0.54877645  0.46754321    -0.11200
C737        C  0.47532143  0.53899056  0.48256896    -0.01200
C738        C  0.50110121  0.53144706  0.47626071    -0.06400
H739        H  0.49417654  0.54497789  0.42248478     0.06100
H740        H  0.47046065  0.53679166  0.49942225     0.09500
Br741      Br  0.51715852  0.45637274  0.43642456    -0.06100
Br742      Br  0.60564465  0.57371368  0.46927723    -0.03000
Br743      Br  0.43795326  0.56427333  0.42359353    -0.00200
Br744      Br  0.52600474  0.51710193  0.49806469    -0.04500
C745        C  0.62253817  0.40213032  0.68016772    -0.11900
C746        C  0.62826849  0.36787072  0.67305069     0.03500
C747        C  0.63282852  0.36174812  0.65122249    -0.12500
C748        C  0.63187834  0.38949562  0.63647551     0.18400
C749        C  0.62481811  0.42329598  0.64346036    -0.09500
C750        C  0.62041086  0.42941704  0.66517824    -0.02500
H751        H  0.63806076  0.33563992  0.64586168     0.04900
C752        C  0.63847145  0.38354416  0.61380621     0.20400
H753        H  0.61629093  0.45589779  0.67052357     0.10100
C754        C  0.61845971  0.37207036  0.59990071    -0.15900
C755        C  0.62176234  0.37439810  0.57774570     0.03100
C756        C  0.64541135  0.38865406  0.56929523    -0.11200
C757        C  0.66646789  0.39663505  0.58322121    -0.01200
C758        C  0.66309682  0.39423476  0.60542766    -0.06400
H759        H  0.59963524  0.36329447  0.60628995     0.06100
H760        H  0.68477564  0.40732006  0.57694557     0.09500
Br761      Br  0.62187136  0.46215187  0.62396105    -0.06100
Br762      Br  0.63286697  0.32957302  0.69271120    -0.03000
Br763      Br  0.59288167  0.35905162  0.55979996    -0.00200
Br764      Br  0.69171779  0.40867082  0.62377152    -0.04500
C765        C  0.69245135  0.50354552  0.79121748    -0.11900
C766        C  0.70159823  0.53761276  0.78679781     0.03500
C767        C  0.72728460  0.54709923  0.79285141    -0.12500
C768        C  0.74392828  0.52286340  0.80319389     0.18400
C769        C  0.73336540  0.49080313  0.81041942    -0.09500
C770        C  0.70778048  0.48101883  0.80404123    -0.02500
H771        H  0.73523248  0.57189626  0.78731937     0.04900
C772        C  0.77274561  0.52755811  0.80061905     0.20400
H773        H  0.70072091  0.45482864  0.80760316     0.10100
C774        C  0.78568999  0.55599481  0.81043055    -0.15900
C775        C  0.81154040  0.56518135  0.80440099     0.03100
C776        C  0.82455319  0.54559060  0.78851229    -0.11200
C777        C  0.81196340  0.51661119  0.77930513    -0.01200
C778        C  0.78620846  0.50770110  0.78498499    -0.06400
H779        H  0.77514832  0.57215757  0.82184812     0.06100
H780        H  0.82177209  0.50188905  0.76676289     0.09500
Br781      Br  0.75450814  0.45795312  0.82640319    -0.06100
Br782      Br  0.68156388  0.56970389  0.76929643    -0.03000
Br783      Br  0.82701065  0.60696849  0.81604587    -0.00200
Br784      Br  0.76935978  0.47119600  0.76859177    -0.04500
C785        C  0.86400862  0.65762618  0.93210580    -0.11900
C786        C  0.88491119  0.68049724  0.92669207     0.03500
C787        C  0.89178376  0.68510218  0.90511389    -0.12500
C788        C  0.87797391  0.66736953  0.88880759     0.18400
C789        C  0.85567670  0.64697222  0.89420532    -0.09500
C790        C  0.84884891  0.64237330  0.91568404    -0.02500
H791        H  0.90918244  0.70043619  0.90116177     0.04900
C792        C  0.89032952  0.66383772  0.86744052     0.20400
H793        H  0.83288598  0.62450848  0.91966885     0.10100
C794        C  0.91189467  0.64084988  0.86552934    -0.15900
C795        C  0.92180245  0.63170326  0.84543465     0.03100
C796        C  0.91028422  0.64599275  0.82666981    -0.11200
C797        C  0.88997265  0.67109624  0.82867579    -0.01200
C798        C  0.87982464  0.67987894  0.84890127    -0.06400
H799        H  0.92022132  0.62856401  0.87973610     0.06100
H800        H  0.88066982  0.68197894  0.81444431     0.09500
Br801      Br  0.83616885  0.62068122  0.87326063    -0.06100
Br802      Br  0.90715689  0.70169849  0.94810901    -0.03000
Br803      Br  0.95042567  0.59839382  0.84459042    -0.00200
Br804      Br  0.85073197  0.71219023  0.85045619    -0.04500
C805        C  0.19690577  0.49717556  0.29957009    -0.11900
C806        C  0.22044974  0.47802935  0.30345394     0.03500
C807        C  0.24447019  0.49588629  0.30590732    -0.12500
C808        C  0.24516653  0.53264668  0.30519878     0.18400
C809        C  0.22109834  0.55142493  0.30567568    -0.09500
C810        C  0.19708053  0.53363352  0.30280517    -0.02500
H811        H  0.26276772  0.48103545  0.30611368     0.04900
C812        C  0.26989235  0.54967939  0.29785146     0.20400
H813        H  0.17908882  0.54877710  0.30061677     0.10100
C814        C  0.26971128  0.56483662  0.27734152    -0.15900
C815        C  0.29315837  0.57550366  0.26744031     0.03100
C816        C  0.31782772  0.57076901  0.27809186    -0.11200
C817        C  0.31766752  0.55728635  0.29923511    -0.01200
C818        C  0.29404312  0.54660997  0.30901926    -0.06400
H819        H  0.25135032  0.56689986  0.26856803     0.06100
H820        H  0.33591299  0.55381540  0.30796732     0.09500
Br821      Br  0.22052062  0.60163047  0.30752215    -0.06100
Br822      Br  0.22130991  0.42763287  0.30338579    -0.03000
Br823      Br  0.28914138  0.59491023  0.23912051    -0.00200
Br824      Br  0.29577239  0.52740484  0.33744792    -0.04500
C825        C  0.08066671  0.48294111  0.96193021    -0.11900
C826        C  0.07591280  0.51946436  0.96226110     0.03500
C827        C  0.05014868  0.53218046  0.95914684    -0.12500
C828        C  0.02893311  0.50910149  0.95579485     0.18400
C829        C  0.03411083  0.47313031  0.95300557    -0.09500
C830        C  0.05983945  0.46021974  0.95628962    -0.02500
H831        H  0.04624636  0.55986099  0.96150967     0.04900
C832        C  0.00202818  0.52163715  0.96109200     0.20400
H833        H  0.06321588  0.43216166  0.95587336     0.10100
C834        C  0.98730872  0.54207241  0.94653787    -0.15900
C835        C  0.96311769  0.55741498  0.95267923     0.03100
C836        C  0.95390896  0.55303891  0.97391130    -0.11200
C837        C  0.96859253  0.53193677  0.98812927    -0.01200
C838        C  0.99227565  0.51629239  0.98192669    -0.06400
H839        H  0.99488327  0.54659029  0.93055038     0.06100
H840        H  0.96164834  0.52758033  0.00433351     0.09500
Br841      Br  0.00604921  0.44051706  0.94716560    -0.06100
Br842      Br  0.10251986  0.55286343  0.97069493    -0.03000
Br843      Br  0.94454610  0.58549567  0.93187273    -0.00200
Br844      Br  0.01126987  0.48920778  0.00302182    -0.04500
C845        C  0.16843608  0.41133060  0.07042277    -0.11900
C846        C  0.16677609  0.44205441  0.08299648     0.03500
C847        C  0.16312744  0.43941563  0.10506659    -0.12500
C848        C  0.16144757  0.40658607  0.11496945     0.18400
C849        C  0.16542789  0.37598195  0.10284180    -0.09500
C850        C  0.16890569  0.37848834  0.08062023    -0.02500
H851        H  0.16091749  0.46308010  0.11450304     0.04900
C852        C  0.15512405  0.40536488  0.13794619     0.20400
H853        H  0.17016494  0.35471557  0.07118365     0.10100
C854        C  0.12848113  0.40686286  0.14444585    -0.15900
C855        C  0.12197325  0.41060152  0.16615767     0.03100
C856        C  0.14241175  0.41338163  0.18152435    -0.11200
C857        C  0.16899095  0.41082755  0.17487906    -0.01200
C858        C  0.17542713  0.40678702  0.15334586    -0.06400
H859        H  0.11277672  0.40625876  0.13251934     0.06100
H860        H  0.18495819  0.41274538  0.18650918     0.09500
Br861      Br  0.16486274  0.33046731  0.11589507    -0.06100
Br862      Br  0.16874529  0.48836032  0.07083442    -0.03000
Br863      Br  0.08529550  0.41476135  0.17365192    -0.00200
Br864      Br  0.21219993  0.40501973  0.14554707    -0.04500
C865        C  0.37630161  0.16421732  0.93260879    -0.11900
C866        C  0.35667133  0.17042765  0.91695139     0.03500
C867        C  0.36406438  0.17595486  0.89552895    -0.12500
C868        C  0.39088730  0.17419664  0.88935711     0.18400
C869        C  0.41055086  0.17122715  0.90537379    -0.09500
C870        C  0.40315169  0.16652638  0.92678688    -0.02500
H871        H  0.34873314  0.17784758  0.88333821     0.04900
C872        C  0.39735977  0.16629784  0.86664679     0.20400
H873        H  0.41844411  0.16114143  0.93863312     0.10100
C874        C  0.41133717  0.19013207  0.85368015    -0.15900
C875        C  0.41848399  0.18140333  0.83247398     0.03100
C876        C  0.41142631  0.14821712  0.82391542    -0.11200
C877        C  0.39777886  0.12463235  0.83738709    -0.01200
C878        C  0.39089867  0.13321449  0.85828062    -0.06400
H879        H  0.41687350  0.21545974  0.86013581     0.06100
H880        H  0.39240469  0.09870346  0.83182436     0.09500
Br881      Br  0.44752599  0.16765063  0.89844175    -0.06100
Br882      Br  0.31970312  0.16608330  0.92353042    -0.03000
Br883      Br  0.43785801  0.21583038  0.81648426    -0.00200
Br884      Br  0.37367807  0.09760899  0.87506255    -0.04500
C885        C  0.46425145  0.06615744  0.97124649    -0.11900
C886        C  0.46935819  0.06122988  0.94908002     0.03500
C887        C  0.49413434  0.04834433  0.94250826    -0.12500
C888        C  0.51398294  0.04083404  0.95762568     0.18400
C889        C  0.50944909  0.04758778  0.97943811    -0.09500
C890        C  0.48492654  0.06008864  0.98602398    -0.02500
H891        H  0.49778858  0.04366359  0.92565377     0.04900
C892        C  0.53909743  0.02416301  0.95135749     0.20400
H893        H  0.48185880  0.06378671  0.00304551     0.10100
C894        C  0.56191526  0.04503525  0.95055796    -0.15900
C895        C  0.58690076  0.03050717  0.95477238     0.03100
C896        C  0.58899908  0.99443659  0.95986114    -0.11200
C897        C  0.56655789  0.97293931  0.95732303    -0.01200
C898        C  0.54168668  0.98757225  0.95305152    -0.06400
H899        H  0.55995770  0.07325701  0.94922433     0.06100
H900        H  0.56790460  0.94508915  0.96064231     0.09500
Br901      Br  0.53578333  0.03836962  0.00116446    -0.06100
Br902      Br  0.44401704  0.07201282  0.92689355    -0.03000
Br903      Br  0.61608072  0.06263489  0.95702258    -0.00200
Br904      Br  0.51123808  0.95739298  0.95320878    -0.04500
C905        C  0.66062346  0.90989277  0.07299533    -0.11900
C906        C  0.65243220  0.87736546  0.08155160     0.03500
C907        C  0.64684262  0.87443459  0.10350618    -0.12500
C908        C  0.64946313  0.90344722  0.11717077     0.18400
C909        C  0.65992305  0.93494484  0.10895588    -0.09500
C910        C  0.66497719  0.93812184  0.08701504    -0.02500
H911        H  0.63936605  0.84986118  0.10977052     0.04900
C912        C  0.64067523  0.90092746  0.13978697     0.20400
H913        H  0.67158765  0.96313725  0.08074718     0.10100
C914        C  0.65549153  0.88079565  0.15434971    -0.15900
C915        C  0.64972747  0.88158235  0.17627328     0.03100
C916        C  0.62878328  0.90262290  0.18394267    -0.11200
C917        C  0.61289292  0.92102454  0.16924721    -0.01200
C918        C  0.61849542  0.91994040  0.14724634    -0.06400
H919        H  0.67233550  0.86571757  0.14878226     0.06100
H920        H  0.59693332  0.93755948  0.17496426     0.09500
Br921      Br  0.66738224  0.97443768  0.12706913    -0.06100
Br922      Br  0.64585142  0.83724687  0.06375403    -0.03000
Br923      Br  0.67224040  0.85547726  0.19542936    -0.00200
Br924      Br  0.59581960  0.94556145  0.12799205    -0.04500
C925        C  0.32326291  0.07715412  0.76380779    -0.11900
C926        C  0.31397410  0.07224792  0.78496244     0.03500
C927        C  0.28770750  0.06153811  0.78832796    -0.12500
C928        C  0.27053864  0.05614865  0.77089943     0.18400
C929        C  0.27932607  0.06305261  0.74998044    -0.09500
C930        C  0.30539651  0.07351671  0.74659524    -0.02500
H931        H  0.28084050  0.05662145  0.80448441     0.04900
C932        C  0.24436169  0.04002896  0.77402940     0.20400
H933        H  0.31200388  0.07725607  0.73024712     0.10100
C934        C  0.22161995  0.06120198  0.77336214    -0.15900
C935        C  0.19656509  0.04636735  0.76987428     0.03100
C936        C  0.19426774  0.00973255  0.76706037    -0.11200
C937        C  0.21686240  0.98852543  0.76962117    -0.01200
C938        C  0.24178899  0.00338320  0.77301255    -0.06400
H939        H  0.22362914  0.08947994  0.77382549     0.06100
H940        H  0.21535998  0.96036220  0.76768568     0.09500
Br941      Br  0.25692221  0.05611649  0.72533145    -0.06100
Br942      Br  0.33574585  0.08070991  0.80977021    -0.03000
Br943      Br  0.16715985  0.07788262  0.76600687    -0.00200
Br944      Br  0.27216739  0.97294372  0.77348661    -0.04500
C945        C  0.10955129  0.89351363  0.67316191    -0.11900
C946        C  0.11997970  0.86016096  0.66802104     0.03500
C947        C  0.12885383  0.85350910  0.64713822    -0.12500
C948        C  0.12703732  0.87946764  0.63126993     0.18400
C949        C  0.11296660  0.91056818  0.63563286    -0.09500
C950        C  0.10457822  0.91749225  0.65648970    -0.02500
H951        H  0.13883450  0.82899922  0.64367657     0.04900
C952        C  0.14180441  0.87554798  0.61098016     0.20400
H953        H  0.09604722  0.94292349  0.66003645     0.10100
C954        C  0.13311850  0.85152110  0.59550454    -0.15900
C955        C  0.14332509  0.85262817  0.57466019     0.03100
C956        C  0.16223810  0.87835851  0.56913641    -0.11200
C957        C  0.17299468  0.89958449  0.58530086    -0.01200
C958        C  0.16320365  0.89800294  0.60618631    -0.06400
H959        H  0.11711658  0.83357959  0.59920229     0.06100
H960        H  0.18748540  0.91948824  0.58126949     0.09500
Br961      Br  0.10652882  0.94551468  0.61398474    -0.06100
Br962      Br  0.12587749  0.82446088  0.68923316    -0.03000
Br963      Br  0.12802742  0.82186075  0.55368858    -0.00200
Br964      Br  0.17829019  0.92895960  0.62721743    -0.04500
C965        C  0.69801404  0.98756319  0.29936517    -0.11900
C966        C  0.70291281  0.02337918  0.30343156     0.03500
C967        C  0.72890425  0.03448087  0.30752337    -0.12500
C968        C  0.74982623  0.01023545  0.30779104     0.18400
C969        C  0.74408394  0.97415198  0.30778416    -0.09500
C970        C  0.71822213  0.96302306  0.30346642    -0.02500
H971        H  0.73318069  0.06231869  0.30786543     0.04900
C972        C  0.77624181  0.02254123  0.30114213     0.20400
H973        H  0.71448644  0.93532371  0.30112618     0.10100
C974        C  0.79311639  0.04008998  0.31549667    -0.15900
C975        C  0.81759553  0.05344656  0.30855635     0.03100
C976        C  0.82517662  0.04935153  0.28689438    -0.11200
C977        C  0.80792894  0.03215396  0.27267275    -0.01200
C978        C  0.78372198  0.01897123  0.27953356    -0.06400
H979        H  0.78710359  0.04372973  0.33199469     0.06100
H980        H  0.81334026  0.02874141  0.25600851     0.09500
Br981      Br  0.77169399  0.93957414  0.30971703    -0.06100
Br982      Br  0.67620171  0.05886019  0.29980982    -0.03000
Br983      Br  0.83881617  0.07894483  0.32888540    -0.00200
Br984      Br  0.76110697  0.99750162  0.25835964    -0.04500
C985        C  0.08818061  0.99156763  0.46987692    -0.11900
C986        C  0.08115775  0.02600370  0.47572826     0.03500
C987        C  0.05499413  0.03739085  0.47281109    -0.12500
C988        C  0.03585372  0.01488494  0.46399725     0.18400
C989        C  0.04368944  0.98220698  0.45575818    -0.09500
C990        C  0.06968173  0.97053936  0.45900053    -0.02500
H991        H  0.04900730  0.06249643  0.47932599     0.04900
C992        C  0.00774782  0.02168263  0.46881733     0.20400
H993        H  0.07486405  0.94397295  0.45452591     0.10100
C994        C  0.99250691  0.04428169  0.45594758    -0.15900
C995        C  0.96635491  0.05266715  0.46168330     0.03100
C996        C  0.95536945  0.03822971  0.48047181    -0.11200
C997        C  0.97066130  0.01532676  0.49306607    -0.01200
C998        C  0.99660942  0.00709458  0.48745218    -0.06400
H999        H  0.00117890  0.05607803  0.44181767     0.06100
H1000       H  0.96252203  0.00428574  0.50764260     0.09500
Br1001     Br  0.01865703  0.95111745  0.44247643    -0.06100
Br1002     Br  0.10514162  0.05614745  0.49104697    -0.03000
Br1003     Br  0.94749137  0.08653588  0.44475950    -0.00200
Br1004     Br  0.01655879  0.97722636  0.50645545    -0.04500
C1005       C  0.91597193  0.14362000  0.33099672    -0.11900
C1006       C  0.89980618  0.17267868  0.33631008     0.03500
C1007       C  0.89099015  0.17702777  0.35757672    -0.12500
C1008       C  0.89834155  0.15298317  0.37366580     0.18400
C1009       C  0.91630375  0.12602045  0.36860069    -0.09500
C1010       C  0.92506386  0.12173891  0.34760340    -0.02500
H1011       H  0.87716102  0.19790170  0.36126957     0.04900
C1012       C  0.88443639  0.15203722  0.39462166     0.20400
H1013       H  0.93757342  0.09941285  0.34393682     0.10100
C1014       C  0.86346307  0.12820123  0.39696377    -0.15900
C1015       C  0.85430187  0.11859767  0.41729203     0.03100
C1016       C  0.86582954  0.13331271  0.43587084    -0.11200
C1017       C  0.88516648  0.15962252  0.43342923    -0.01200
C1018       C  0.89462956  0.16884551  0.41299867    -0.06400
H1019       H  0.85543014  0.11512112  0.38294440     0.06100
H1020       H  0.89443603  0.17103343  0.44748260     0.09500
Br1021     Br  0.92709165  0.09164238  0.38931833    -0.06100
Br1022     Br  0.88677288  0.20466390  0.31492706    -0.03000
Br1023     Br  0.82681928  0.08398359  0.41876960    -0.00200
Br1024     Br  0.92306150  0.20201883  0.41099357    -0.04500
C1025       C  0.94574744  0.64058544  0.57640661    -0.11900
C1026       C  0.94701897  0.66872839  0.59107170     0.03500
C1027       C  0.95019721  0.66209661  0.61296202    -0.12500
C1028       C  0.95345205  0.62777266  0.62068666     0.18400
C1029       C  0.95597882  0.60017999  0.60565213    -0.09500
C1030       C  0.95185300  0.60669461  0.58372367    -0.02500
H1031       H  0.94827221  0.68374551  0.62405969     0.04900
C1032       C  0.94893909  0.62095370  0.64394924     0.20400
H1033       H  0.95149118  0.58483566  0.57265195     0.10100
C1034       C  0.92892367  0.59722273  0.64956433    -0.15900
C1035       C  0.92097498  0.59286357  0.67077216     0.03100
C1036       C  0.93185241  0.61443805  0.68712639    -0.11200
C1037       C  0.95267413  0.63732029  0.68169232    -0.01200
C1038       C  0.96145001  0.64038692  0.66042195    -0.06400
H1039       H  0.91881701  0.58231590  0.63721803     0.06100
H1040       H  0.96191199  0.65338093  0.69393436     0.09500
Br1041     Br  0.96365549  0.55285699  0.61429353    -0.06100
Br1042     Br  0.94325202  0.71678320  0.58218402    -0.03000
Br1043     Br  0.89579230  0.55575768  0.67567540    -0.00200
Br1044     Br  0.99080592  0.67105045  0.65487488    -0.04500
C1045       C  0.99247879  0.71120201  0.49219506    -0.11900
C1046       C  0.00017765  0.73167753  0.47435498     0.03500
C1047       C  0.02307293  0.75237492  0.47544158    -0.12500
C1048       C  0.03865151  0.75349023  0.49410002     0.18400
C1049       C  0.03147601  0.73248506  0.51174480    -0.09500
C1050       C  0.00877660  0.71122479  0.51058722    -0.02500
H1051       H  0.02834432  0.76858770  0.46183448     0.04900
C1052       C  0.06031588  0.77975459  0.49552811     0.20400
H1053       H  0.00298064  0.69631991  0.52460038     0.10100
C1054       C  0.05340414  0.81518219  0.49729265    -0.15900
C1055       C  0.07282163  0.84127214  0.49852587     0.03100
C1056       C  0.10009595  0.83216422  0.49819070    -0.11200
C1057       C  0.10698627  0.79659898  0.49573175    -0.01200
C1058       C  0.08734766  0.77050042  0.49439455    -0.06400
H1059       H  0.03263830  0.82261419  0.49763399     0.06100
H1060       H  0.12769056  0.78897578  0.49526112     0.09500
Br1061     Br  0.05066309  0.73450004  0.53836312    -0.06100
Br1062     Br  0.98025691  0.73287071  0.44803776    -0.03000
Br1063     Br  0.06033435  0.88888481  0.49936102    -0.00200
Br1064     Br  0.09816323  0.72269335  0.49063523    -0.04500
C1065       C  0.89982639  0.78631012  0.53810054    -0.11900
C1066       C  0.91961290  0.81084227  0.53225747     0.03500
C1067       C  0.91588081  0.84648756  0.53650677    -0.12500
C1068       C  0.89300561  0.85837181  0.54692679     0.18400
C1069       C  0.87497789  0.83364174  0.55512462    -0.09500
C1070       C  0.87845855  0.79789168  0.55070556    -0.02500
H1071       H  0.93015232  0.86525410  0.53046485     0.04900
C1072       C  0.88621862  0.89611484  0.54533287     0.20400
H1073       H  0.86340807  0.77952161  0.55588388     0.10100
C1074       C  0.86539880  0.90592455  0.53154809    -0.15900
C1075       C  0.86154249  0.94096417  0.52565130     0.03100
C1076       C  0.87879313  0.96713128  0.53363427    -0.11200
C1077       C  0.89836882  0.95753217  0.54873842    -0.01200
C1078       C  0.90229771  0.92235020  0.55446571    -0.06400
H1079       H  0.85286635  0.88593542  0.52445087     0.06100
H1080       H  0.91173341  0.97715773  0.55517472     0.09500
Br1081     Br  0.84474564  0.84789167  0.57151804    -0.06100
Br1082     Br  0.95186588  0.79782174  0.51790504    -0.03000
Br1083     Br  0.83255198  0.95107506  0.50646120    -0.00200
Br1084     Br  0.93042584  0.91115393  0.57415699    -0.04500
C1085       C  0.74283736  0.46789474  0.51521160    -0.11900
C1086       C  0.76564031  0.44808661  0.50983011     0.03500
C1087       C  0.79112251  0.46256070  0.51285692    -0.12500
C1088       C  0.79437981  0.49665098  0.52105011     0.18400
C1089       C  0.77164511  0.51596950  0.52670811    -0.09500
C1090       C  0.74653878  0.50119384  0.52432585    -0.02500
H1091       H  0.80846009  0.44763705  0.50806085     0.04900
C1092       C  0.82096067  0.51359835  0.52163057     0.20400
H1093       H  0.72941003  0.51697762  0.52864904     0.10100
C1094       C  0.83338148  0.52216864  0.50223453    -0.15900
C1095       C  0.85478869  0.54567474  0.50172341     0.03100
C1096       C  0.86380638  0.56158507  0.52088728    -0.11200
C1097       C  0.85285690  0.55044614  0.54043828    -0.01200
C1098       C  0.83200330  0.52617504  0.54094452    -0.06400
H1099       H  0.82528638  0.51236135  0.48727955     0.06100
H1100       H  0.85990460  0.56165426  0.55536690     0.09500
Br1101     Br  0.77326952  0.56437689  0.53522190    -0.06100
Br1102     Br  0.76341510  0.40283329  0.49653161    -0.03000
Br1103     Br  0.86865554  0.55782997  0.47413033    -0.00200
Br1104     Br  0.81826839  0.51224408  0.56830749    -0.04500
C1105       C  0.84799161  0.65341804  0.18597264    -0.11900
C1106       C  0.83245190  0.67786707  0.17450860     0.03500
C1107       C  0.83018930  0.67530600  0.15212000    -0.12500
C1108       C  0.84353614  0.64876175  0.14088949     0.18400
C1109       C  0.85856738  0.62385592  0.15246548    -0.09500
C1110       C  0.86043213  0.62611366  0.17482304    -0.02500
H1111       H  0.81879464  0.69478696  0.14337966     0.04900
C1112       C  0.84398744  0.64933112  0.11710773     0.20400
H1113       H  0.87317280  0.60789357  0.18338969     0.10100
C1114       C  0.86055134  0.67350067  0.10674669    -0.15900
C1115       C  0.86458325  0.67169905  0.08457993     0.03100
C1116       C  0.85165761  0.64572280  0.07236159    -0.11200
C1117       C  0.83393177  0.62278711  0.08249979    -0.01200
C1118       C  0.83008231  0.62438964  0.10474763    -0.06400
H1119       H  0.87128516  0.69284935  0.11607371     0.06100
H1120       H  0.82411095  0.60248142  0.07328373     0.09500
Br1121     Br  0.87922309  0.58859212  0.13826867    -0.06100
Br1122     Br  0.81505216  0.71593875  0.18879598    -0.03000
Br1123     Br  0.88870135  0.70437217  0.07166875    -0.00200
Br1124     Br  0.80663720  0.59111920  0.11777682    -0.04500
C1125       C  0.68046814  0.83646341  0.25751250    -0.11900
C1126       C  0.70825068  0.84122351  0.26002531     0.03500
C1127       C  0.72501518  0.81219639  0.26160099    -0.12500
C1128       C  0.71502040  0.77802327  0.26111682     0.18400
C1129       C  0.68744266  0.77288396  0.25940136    -0.09500
C1130       C  0.67039953  0.80196990  0.25753946    -0.02500
H1131       H  0.74619575  0.81631571  0.26342492     0.04900
C1132       C  0.73431938  0.74889594  0.26335826     0.20400
H1133       H  0.64926651  0.79753178  0.25584098     0.10100
C1134       C  0.74629436  0.74358983  0.28342571    -0.15900
C1135       C  0.76958398  0.72386557  0.28540427     0.03100
C1136       C  0.78127231  0.70874422  0.26708517    -0.11200
C1137       C  0.76798378  0.71144516  0.24728202    -0.01200
C1138       C  0.74479166  0.73169489  0.24527936    -0.06400
H1139       H  0.73846785  0.75682411  0.29740291     0.06100
H1140       H  0.77683758  0.70034277  0.23302348     0.09500
Br1141     Br  0.67236932  0.72678202  0.25991380    -0.06100
Br1142     Br  0.72521920  0.88620882  0.26263934    -0.03000
Br1143     Br  0.78550052  0.72010596  0.31336165    -0.00200
Br1144     Br  0.72987326  0.73855662  0.21722825    -0.04500
C1145       C  0.90145775  0.98441695  0.23037298    -0.11900
C1146       C  0.91984197  0.95884724  0.23750595     0.03500
C1147       C  0.91598324  0.92366257  0.23212310    -0.12500
C1148       C  0.89404702  0.91335830  0.21976379     0.18400
C1149       C  0.87729462  0.93906782  0.21086319    -0.09500
C1150       C  0.88120775  0.97438011  0.21603399    -0.02500
H1151       H  0.92906042  0.90394587  0.23892980     0.04900
C1152       C  0.88593966  0.87625942  0.22076154     0.20400
H1153       H  0.86707458  0.99360093  0.21016663     0.10100
C1154       C  0.86639667  0.86723562  0.23560954    -0.15900
C1155       C  0.86191968  0.83234241  0.24129043     0.03100
C1156       C  0.87739407  0.80530868  0.23188692    -0.11200
C1157       C  0.89543270  0.81453737  0.21556920    -0.01200
C1158       C  0.89987620  0.84967685  0.21011109    -0.06400
H1159       H  0.85556824  0.88777473  0.24380738     0.06100
H1160       H  0.90721484  0.79458530  0.20774255     0.09500
Br1161     Br  0.84768550  0.92666233  0.19300572    -0.06100
Br1162     Br  0.94993815  0.96986532  0.25533643    -0.03000
Br1163     Br  0.83537301  0.82505486  0.26293161    -0.00200
Br1164     Br  0.92581020  0.86046714  0.18871492    -0.04500
C1165       C  0.90640385  0.62997639  0.43717175    -0.11900
C1166       C  0.92521574  0.63169061  0.42057275     0.03500
C1167       C  0.91697025  0.62810984  0.39909687    -0.12500
C1168       C  0.89010811  0.62236577  0.39393068     0.18400
C1169       C  0.87190330  0.61715249  0.41069731    -0.09500
C1170       C  0.87997958  0.62176681  0.43200590    -0.02500
H1171       H  0.93122598  0.63208961  0.38638441     0.04900
C1172       C  0.88066522  0.62789936  0.37151402     0.20400
H1173       H  0.86519837  0.62083811  0.44454111     0.10100
C1174       C  0.88706201  0.60404765  0.35513083    -0.15900
C1175       C  0.87973664  0.61072482  0.33364685     0.03100
C1176       C  0.86575550  0.64172602  0.32835663    -0.11200
C1177       C  0.85870108  0.66473475  0.34497604    -0.01200
C1178       C  0.86624881  0.65839866  0.36618480    -0.06400
H1179       H  0.89840073  0.58070197  0.35897465     0.06100
H1180       H  0.84834950  0.68894899  0.34126565     0.09500
Br1181     Br  0.83534394  0.60622958  0.40512572    -0.06100
Br1182     Br  0.96165726  0.64265051  0.42638650    -0.03000
Br1183     Br  0.89152206  0.57859148  0.31205162    -0.00200
Br1184     Br  0.85849213  0.69417521  0.38691623    -0.04500
C1185       C  0.92671278  0.58403913  0.24367840    -0.11900
C1186       C  0.92021559  0.54799903  0.24505556     0.03500
C1187       C  0.94046281  0.52254053  0.24433660    -0.12500
C1188       C  0.96727098  0.53232752  0.24254797     0.18400
C1189       C  0.97363417  0.56819315  0.24118465    -0.09500
C1190       C  0.95354174  0.59335666  0.24133715    -0.02500
H1191       H  0.93530205  0.49501463  0.24527860     0.04900
C1192       C  0.98877078  0.50555840  0.24277187     0.20400
H1193       H  0.95915616  0.62068183  0.24014750     0.10100
C1194       C  0.00554800  0.50256181  0.22490988    -0.15900
C1195       C  0.02973925  0.48442691  0.22634416     0.03100
C1196       C  0.03709969  0.46791636  0.24569734    -0.11200
C1197       C  0.01928497  0.46855262  0.26296689    -0.01200
C1198       C  0.99534437  0.48716792  0.26167035    -0.06400
H1199       H  0.00081900  0.51681571  0.21034142     0.06100
H1200       H  0.02484609  0.45639531  0.27805528     0.09500
Br1201     Br  0.00966738  0.58465161  0.24048809    -0.06100
Br1202     Br  0.88425520  0.53175092  0.24680324    -0.03000
Br1203     Br  0.05372486  0.48791978  0.20271045    -0.00200
Br1204     Br  0.97397497  0.49012345  0.28698880    -0.04500
C1205       C  0.17567754  0.89347402  0.42842608    -0.11900
C1206       C  0.15456655  0.90348260  0.41470296     0.03500
C1207       C  0.15645168  0.89773718  0.39278168    -0.12500
C1208       C  0.17875780  0.88136992  0.38411582     0.18400
C1209       C  0.19940405  0.86995767  0.39770533    -0.09500
C1210       C  0.19776910  0.87607037  0.41980780    -0.02500
H1211       H  0.14026064  0.90582559  0.38237264     0.04900
C1212       C  0.17904193  0.87536726  0.36087775     0.20400
H1213       H  0.21409148  0.86824610  0.43013472     0.10100
C1214       C  0.19512878  0.89608674  0.34766918    -0.15900
C1215       C  0.19360444  0.89322454  0.32529401     0.03100
C1216       C  0.17535164  0.86946667  0.31594408    -0.11200
C1217       C  0.15935687  0.84891111  0.32952965    -0.01200
C1218       C  0.16121678  0.85150351  0.35167320    -0.06400
H1219       H  0.20871510  0.91477921  0.35481767     0.06100
H1220       H  0.14519704  0.83038567  0.32298049     0.09500
Br1221     Br  0.22981764  0.84580187  0.38671163    -0.06100
Br1222     Br  0.12207988  0.92401122  0.42480396    -0.03000
Br1223     Br  0.21752123  0.92167291  0.30889648    -0.00200
Br1224     Br  0.13908955  0.82153601  0.36873425    -0.04500
C1225       C  0.10059241  0.94803026  0.24519744    -0.11900
C1226       C  0.07401181  0.94501158  0.23762925     0.03500
C1227       C  0.05554829  0.97149679  0.24187381    -0.12500
C1228       C  0.06252392  0.00141284  0.25357692     0.18400
C1229       C  0.08872835  0.00463505  0.26127653    -0.09500
C1230       C  0.10746227  0.97819826  0.25705501    -0.02500
H1231       H  0.03528673  0.96847184  0.23624240     0.04900
C1232       C  0.04151566  0.02772789  0.25825540     0.20400
H1233       H  0.12752694  0.98139152  0.26305102     0.10100
C1234       C  0.03157678  0.03045302  0.27918143    -0.15900
C1235       C  0.00874826  0.05030552  0.28344569     0.03100
C1236       C  0.99566737  0.06836714  0.26668614    -0.11200
C1237       C  0.00646316  0.06717084  0.24602436    -0.01200
C1238       C  0.02899260  0.04685235  0.24166922    -0.06400
H1239       H  0.04083544  0.01567802  0.29205577     0.06100
H1240       H  0.99626045  0.08009114  0.23291147     0.09500
Br1241     Br  0.09988129  0.04505440  0.27718968    -0.06100
Br1242     Br  0.06032641  0.90509040  0.22231215    -0.03000
Br1243     Br  0.99560317  0.05103430  0.31226590    -0.00200
Br1244     Br  0.04106465  0.04452590  0.21258011    -0.04500
C1245       C  0.07840538  0.79354397  0.26745806    -0.11900
C1246       C  0.05783083  0.78303765  0.25355990     0.03500
C1247       C  0.03406643  0.77105196  0.26199647    -0.12500
C1248       C  0.03025156  0.76935402  0.28418573     0.18400
C1249       C  0.05064749  0.77989004  0.29821801    -0.09500
C1250       C  0.07478461  0.79172254  0.28976097    -0.02500
H1251       H  0.01842048  0.76269280  0.25115362     0.04900
C1252       C  0.00472997  0.75529557  0.29147613     0.20400
H1253       H  0.09050771  0.80003857  0.30052192     0.10100
C1254       C  0.00044008  0.71926409  0.28887599    -0.15900
C1255       C  0.97479710  0.70629814  0.28605665     0.03100
C1256       C  0.95314521  0.72969784  0.28573854    -0.11200
C1257       C  0.95719990  0.76486032  0.29152114    -0.01200
C1258       C  0.98292002  0.77783548  0.29427105    -0.06400
H1259       H  0.01719078  0.70171783  0.28693658     0.06100
H1260       H  0.94065334  0.78302895  0.29172812     0.09500
Br1261     Br  0.04615791  0.77866064  0.32869497    -0.06100
Br1262     Br  0.06154860  0.78277480  0.22289557    -0.03000
Br1263     Br  0.97059709  0.65689869  0.28149367    -0.00200
Br1264     Br  0.98750709  0.82723632  0.29862906    -0.04500
C1265       C  0.24831727  0.82524357  0.24507230    -0.11900
C1266       C  0.26152822  0.80620863  0.26139445     0.03500
C1267       C  0.28535305  0.78903835  0.25701123    -0.12500
C1268       C  0.29690407  0.79075640  0.23664070     0.18400
C1269       C  0.28480425  0.81183582  0.22073526    -0.09500
C1270       C  0.26070941  0.82895765  0.22504952    -0.02500
H1271       H  0.29437487  0.77296737  0.26940744     0.04900
C1272       C  0.31936579  0.76667643  0.23202164     0.20400
H1273       H  0.25095334  0.84359026  0.21235814     0.10100
C1274       C  0.31557458  0.73978166  0.21700674    -0.15900
C1275       C  0.33345972  0.71180012  0.21552568     0.03100
C1276       C  0.35535352  0.70969662  0.22982049    -0.11200
C1277       C  0.36024735  0.73814066  0.24362706    -0.01200
C1278       C  0.34259445  0.76648433  0.24471640    -0.06400
H1279       H  0.29794088  0.73970669  0.20698876     0.06100
H1280       H  0.37725210  0.73772574  0.25432237     0.09500
Br1281     Br  0.30014519  0.81741217  0.19285501    -0.06100
Br1282     Br  0.24797375  0.80226542  0.29005038    -0.03000
Br1283     Br  0.32674499  0.67784792  0.19339392    -0.00200
Br1284     Br  0.35071604  0.80402054  0.26411961    -0.04500
C1285       C  0.14018338  0.56061654  0.22951179    -0.11900
C1286       C  0.12374522  0.58882763  0.23592902     0.03500
C1287       C  0.12652826  0.62154742  0.22625632    -0.12500
C1288       C  0.14491881  0.62727088  0.20982564     0.18400
C1289       C  0.16084699  0.59913131  0.20293466    -0.09500
C1290       C  0.15843040  0.56624538  0.21279409    -0.02500
H1291       H  0.11476110  0.64321772  0.23221638     0.04900
C1292       C  0.14912084  0.66397515  0.20275169     0.20400
H1293       H  0.17099632  0.54500903  0.20736390     0.10100
C1294       C  0.17393108  0.67948650  0.20655270    -0.15900
C1295       C  0.17634230  0.71586055  0.20811943     0.03100
C1296       C  0.15333969  0.73706299  0.20708417    -0.11200
C1297       C  0.12949744  0.72203066  0.19985135    -0.01200
C1298       C  0.12737917  0.68569760  0.19739536    -0.06400
H1299       H  0.19105414  0.66333054  0.21022150     0.06100
H1300       H  0.11181423  0.73797734  0.19807732     0.09500
Br1301     Br  0.18590578  0.60409340  0.18006099    -0.06100
Br1302     Br  0.09809544  0.58629213  0.25863824    -0.03000
Br1303     Br  0.21122238  0.73476286  0.21311915    -0.00200
Br1304     Br  0.09370436  0.66661385  0.18885272    -0.04500
C1305       C  0.10096855  0.89453805  0.92753594    -0.11900
C1306       C  0.12155060  0.91102939  0.91629037     0.03500
C1307       C  0.11901240  0.91638149  0.89424063    -0.12500
C1308       C  0.09618572  0.90520143  0.88323498     0.18400
C1309       C  0.07514207  0.88996054  0.89464026    -0.09500
C1310       C  0.07769207  0.88462389  0.91671998    -0.02500
H1311       H  0.13525205  0.92819912  0.88550167     0.04900
C1312       C  0.09535180  0.90882657  0.85977131     0.20400
H1313       H  0.06201663  0.87124590  0.92529891     0.10100
C1314       C  0.09947657  0.87924258  0.84679815    -0.15900
C1315       C  0.10222471  0.88272494  0.82454017     0.03100
C1316       C  0.10098740  0.91634583  0.81516949    -0.11200
C1317       C  0.09575804  0.94557220  0.82824876    -0.01200
C1318       C  0.09297744  0.94204436  0.85032106    -0.06400
H1319       H  0.10150674  0.85358450  0.85411263     0.06100
H1320       H  0.09412804  0.97154356  0.82128076     0.09500
Br1321     Br  0.04305223  0.87531920  0.88062191    -0.02900
Br1322     Br  0.15420062  0.92392443  0.93017154    -0.03000
Br1323     Br  0.10982080  0.84139393  0.80816744    -0.00200
Br1324     Br  0.08633828  0.98337377  0.86701159    -0.04500
C1325       C  0.03644670  0.82905789  0.99806796    -0.11900
C1326       C  0.02638464  0.82427437  0.01894747     0.03500
C1327       C  0.00277590  0.80531289  0.02193702    -0.12500
C1328       C  0.98883939  0.79125022  0.00435890     0.18400
C1329       C  0.99769813  0.79867869  0.98349257    -0.09500
C1330       C  0.02133280  0.81722702  0.98050708    -0.02500
H1331       H  0.99618444  0.79959625  0.03807215     0.04900
C1332       C  0.96819806  0.76412099  0.00790177     0.20400
H1333       H  0.02871995  0.82077320  0.96436029     0.10100
C1334       C  0.94122025  0.77175613  0.00468635    -0.15900
C1335       C  0.92179580  0.74532423  0.00601794     0.03100
C1336       C  0.92936451  0.71016630  0.01061784    -0.11200
C1337       C  0.95655501  0.70323120  0.01420968    -0.01200
C1338       C  0.97571302  0.72955010  0.01282809    -0.06400
H1339       H  0.93531350  0.79831076  0.00070178     0.06100
H1340       H  0.96330380  0.67688922  0.01778654     0.09500
Br1341     Br  0.97964332  0.78083788  0.95863833    -0.06100
Br1342     Br  0.04568937  0.83905893  0.04394928    -0.03000
Br1343     Br  0.88576717  0.75962323  0.00083238    -0.00200
Br1344     Br  0.01227461  0.71648990  0.01666514    -0.04500
C1345       C  0.13124426  0.72945112  0.02014291    -0.11900
C1346       C  0.11435213  0.70362145  0.01096836     0.03500
C1347       C  0.11735603  0.66859912  0.01680753    -0.12500
C1348       C  0.13640503  0.65824595  0.03192115     0.18400
C1349       C  0.15157748  0.68386944  0.04249899    -0.09500
C1350       C  0.14890729  0.71916023  0.03662091    -0.02500
H1351       H  0.10561273  0.64891610  0.00857825     0.04900
C1352       C  0.14261065  0.62051246  0.03330898     0.20400
H1353       H  0.16160976  0.73830573  0.04433557     0.10100
C1354       C  0.16681002  0.60891094  0.02490473    -0.15900
C1355       C  0.17048814  0.57382013  0.01925054     0.03100
C1356       C  0.14927183  0.54974632  0.02165341    -0.11200
C1357       C  0.12619967  0.56087432  0.03231893    -0.01200
C1358       C  0.12277771  0.59589354  0.03810800    -0.06400
H1359       H  0.18228283  0.62771006  0.02130771     0.06100
H1360       H  0.10996087  0.54284846  0.03503457     0.09500
Br1361     Br  0.17657282  0.67158095  0.06456316    -0.06100
Br1362     Br  0.08749587  0.71251591  0.98953612    -0.03000
Br1363     Br  0.20468851  0.56164233  0.00778517    -0.00200
Br1364     Br  0.08992611  0.60946316  0.05113682    -0.04500
C1365       C  0.12682462  0.88988817  0.06748889    -0.11900
C1366       C  0.13980960  0.92117174  0.07346833     0.03500
C1367       C  0.14797160  0.92592962  0.09469733    -0.12500
C1368       C  0.14330071  0.89989493  0.11003383     0.18400
C1369       C  0.12812857  0.87018772  0.10449351    -0.09500
C1370       C  0.12031261  0.86517397  0.08323477    -0.02500
H1371       H  0.15922658  0.94909996  0.09900487     0.04900
C1372       C  0.15513628  0.90329986  0.13152657     0.20400
H1373       H  0.11040744  0.84102969  0.07875330     0.10100
C1374       C  0.14449166  0.92772542  0.14583863    -0.15900
C1375       C  0.15129977  0.92646932  0.16755737     0.03100
C1376       C  0.16903183  0.90053994  0.17500673    -0.11200
C1377       C  0.18198900  0.87890814  0.16021765    -0.01200
C1378       C  0.17526439  0.88023802  0.13850932    -0.06400
H1379       H  0.12930589  0.94588934  0.14043802     0.06100
H1380       H  0.19539848  0.85860322  0.16584793     0.09500
Br1381     Br  0.11859344  0.83509450  0.12518123    -0.06100
Br1382     Br  0.15004116  0.95603589  0.05289858    -0.03000
Br1383     Br  0.13234479  0.95647282  0.18684370    -0.00200
Br1384     Br  0.19226856  0.84791955  0.11937882    -0.04500
C1385       C  0.29140448  0.07214991  0.98618969    -0.11900
C1386       C  0.28248366  0.05008649  0.96939723     0.03500
C1387       C  0.25994891  0.02909581  0.97217531    -0.12500
C1388       C  0.24581152  0.02944540  0.99147424     0.18400
C1389       C  0.25371176  0.05288340  0.00776585    -0.09500
C1390       C  0.27615996  0.07417607  0.00496211    -0.02500
H1391       H  0.25399094  0.01138097  0.95946913     0.04900
C1392       C  0.22467331  0.00279908  0.99489631     0.20400
H1393       H  0.28260491  0.09078896  0.01803244     0.10100
C1394       C  0.22949738  0.97514164  0.00919634    -0.15900
C1395       C  0.21120954  0.94780318  0.01177717     0.03100
C1396       C  0.18728291  0.94740600  0.99955768    -0.11200
C1397       C  0.18236754  0.97574602  0.98554009    -0.01200
C1398       C  0.20073916  0.00312759  0.98316283    -0.06400
H1399       H  0.24787570  0.97464311  0.01830334     0.06100
H1400       H  0.16424271  0.97654680  0.97613772     0.09500
Br1401     Br  0.23495683  0.05583462  0.03437894    -0.06100
Br1402     Br  0.30030762  0.04711352  0.94229881    -0.03000
Br1403     Br  0.22053331  0.91296598  0.03286275    -0.00200
Br1404     Br  0.19211666  0.04086770  0.96401280    -0.04500
C1405       C  0.34337422  0.66551014  0.67123115    -0.11900
C1406       C  0.35065229  0.68807990  0.65411589     0.03500
C1407       C  0.34356911  0.67968626  0.63300455    -0.12500
C1408       C  0.32879979  0.64952496  0.62831296     0.18400
C1409       C  0.31922768  0.62901723  0.64541103    -0.09500
C1410       C  0.32651627  0.63703055  0.66660659    -0.02500
H1411       H  0.35086069  0.69589639  0.62002702     0.04900
C1412       C  0.32826564  0.63679511  0.60577774     0.20400
H1413       H  0.32001094  0.61982757  0.67936674     0.10100
C1414       C  0.34269956  0.60645354  0.60098758    -0.15900
C1415       C  0.34817334  0.59708553  0.57982645     0.03100
C1416       C  0.33957023  0.61886273  0.56263586    -0.11200
C1417       C  0.32307785  0.64762481  0.56741854    -0.01200
C1418       C  0.31741438  0.65663528  0.58877043    -0.06400
H1419       H  0.35095371  0.59076238  0.61390324     0.06100
H1420       H  0.31572302  0.66430295  0.55463377     0.09500
Br1421     Br  0.29675364  0.58927619  0.64040545    -0.06100
Br1422     Br  0.37041958  0.73075892  0.65799269    -0.03000
Br1423     Br  0.36804280  0.55437280  0.57611276    -0.00200
Br1424     Br  0.29523653  0.69653130  0.59405474    -0.04500
C1425       C  0.42460094  0.58687813  0.72824117    -0.11900
C1426       C  0.44936119  0.58740070  0.71737286     0.03500
C1427       C  0.46704340  0.55921887  0.71937438    -0.12500
C1428       C  0.46079623  0.52942196  0.73149364     0.18400
C1429       C  0.43561427  0.52772156  0.74126040    -0.09500
C1430       C  0.41787856  0.55615123  0.73959919    -0.02500
H1431       H  0.48634513  0.56111550  0.71187885     0.04900
C1432       C  0.48224503  0.50317248  0.73582545     0.20400
H1433       H  0.39900394  0.55446407  0.74775977     0.10100
C1434       C  0.49095996  0.49853563  0.75704110    -0.15900
C1435       C  0.51449723  0.48050513  0.76167283     0.03100
C1436       C  0.53021329  0.46691092  0.74496001    -0.11200
C1437       C  0.52058498  0.46902766  0.72383629    -0.01200
C1438       C  0.49679252  0.48696352  0.71918608    -0.06400
H1439       H  0.48021914  0.51075595  0.77005283     0.06100
H1440       H  0.53235502  0.45866337  0.71080779     0.09500
Br1441     Br  0.42448959  0.48708002  0.75698620    -0.06100
Br1442     Br  0.46114613  0.62517516  0.69929942    -0.03000
Br1443     Br  0.52496075  0.47638654  0.79120405    -0.00200
Br1444     Br  0.48543860  0.48962399  0.68982144    -0.04500
C1445       C  0.18095657  0.85135015  0.74036168    -0.11900
C1446       C  0.20800796  0.85900022  0.73613476     0.03500
C1447       C  0.22735659  0.83273183  0.73825245    -0.12500
C1448       C  0.22060032  0.79865464  0.74460909     0.18400
C1449       C  0.19388253  0.79089328  0.74895823    -0.09500
C1450       C  0.17438148  0.81702957  0.74684717    -0.02500
H1451       H  0.24796137  0.83905651  0.73519398     0.04900
C1452       C  0.24202503  0.77219956  0.74743216     0.20400
H1453       H  0.15391563  0.81032051  0.75013539     0.10100
C1454       C  0.25396173  0.76820200  0.76764554    -0.15900
C1455       C  0.27631955  0.74671595  0.77039900     0.03100
C1456       C  0.28704273  0.72841841  0.75277300    -0.11200
C1457       C  0.27420105  0.73097575  0.73277337    -0.01200
C1458       C  0.25202006  0.75291350  0.72998181    -0.06400
H1459       H  0.24638259  0.78279506  0.78119642     0.06100
H1460       H  0.28241896  0.71763940  0.71898476     0.09500
Br1461     Br  0.18324246  0.74482628  0.75770250    -0.06100
Br1462     Br  0.22059813  0.90498927  0.72869529    -0.03000
Br1463     Br  0.29182666  0.74364327  0.79852420    -0.00200
Br1464     Br  0.23684669  0.75741169  0.70185708    -0.04500
C1465       C  0.38419738  0.81160629  0.71806326    -0.11900
C1466       C  0.36485567  0.83619542  0.72455929     0.03500
C1467       C  0.36899153  0.87200625  0.72101008    -0.12500
C1468       C  0.39208009  0.88400658  0.71089275     0.18400
C1469       C  0.41032302  0.85935502  0.70286223    -0.09500
C1470       C  0.40621650  0.82347119  0.70635751    -0.02500
H1471       H  0.35473376  0.89071334  0.72715234     0.04900
C1472       C  0.39848306  0.92190663  0.71199931     0.20400
H1473       H  0.42118658  0.80501311  0.70110289     0.10100
C1474       C  0.41943018  0.93246688  0.72535144    -0.15900
C1475       C  0.42347419  0.96781370  0.73021368     0.03100
C1476       C  0.40602062  0.99364613  0.72181978    -0.11200
C1477       C  0.38627098  0.98317715  0.70712772    -0.01200
C1478       C  0.38235704  0.94763733  0.70228100    -0.06400
H1479       H  0.43206191  0.91288372  0.73282199     0.06100
H1480       H  0.37279023  0.00240695  0.70034102     0.09500
Br1481     Br  0.44166680  0.87366552  0.68788253    -0.06100
Br1482     Br  0.33258527  0.82254812  0.73859522    -0.03000
Br1483     Br  0.45298158  0.97844630  0.74879904    -0.00200
Br1484     Br  0.35428955  0.93525700  0.68285405    -0.04500
C1485       C  0.43360566  0.64679315  0.06245685    -0.11900
C1486       C  0.41315203  0.63303448  0.07540252     0.03500
C1487       C  0.41706757  0.62821617  0.09736502    -0.12500
C1488       C  0.44124955  0.63660662  0.10722761     0.18400
C1489       C  0.46238191  0.64853117  0.09425092    -0.09500
C1490       C  0.45842481  0.65369268  0.07199709    -0.02500
H1491       H  0.40078895  0.61844828  0.10696455     0.04900
C1492       C  0.44284029  0.63281116  0.13105808     0.20400
H1493       H  0.47440141  0.66409786  0.06234340     0.10100
C1494       C  0.43875597  0.59946847  0.14011152    -0.15900
C1495       C  0.43315354  0.59543116  0.16199211     0.03100
C1496       C  0.43176755  0.62507334  0.17546866    -0.11200
C1497       C  0.43778836  0.65814278  0.16678810    -0.01200
C1498       C  0.44286231  0.66227445  0.14477379    -0.06400
H1499       H  0.43848599  0.57657852  0.12984000     0.06100
H1500       H  0.43658682  0.68123103  0.17684184     0.09500
Br1501     Br  0.49683188  0.65760585  0.10617369    -0.06100
Br1502     Br  0.37904680  0.62020666  0.06394996    -0.03000
Br1503     Br  0.42696953  0.54885549  0.17258650    -0.00200
Br1504     Br  0.44626911  0.70913067  0.13390201    -0.04500
C1505       C  0.24915648  0.46624818  0.99593932    -0.11900
C1506       C  0.26540303  0.46235378  0.01442835     0.03500
C1507       C  0.28890655  0.48206776  0.01642956    -0.12500
C1508       C  0.29655411  0.50591145  0.00041378     0.18400
C1509       C  0.28087910  0.50901919  0.98182908    -0.09500
C1510       C  0.25780734  0.48917448  0.97964293    -0.02500
H1511       H  0.30080513  0.47970615  0.03087734     0.04900
C1512       C  0.31948160  0.52974384  0.00371593     0.20400
H1513       H  0.24602362  0.49290595  0.96525383     0.10100
C1514       C  0.34206644  0.52637218  0.99078186    -0.15900
C1515       C  0.36178331  0.55239164  0.99048036     0.03100
C1516       C  0.35908386  0.58266954  0.00346538    -0.11200
C1517       C  0.33702883  0.58468811  0.01726839    -0.01200
C1518       C  0.31742597  0.55879764  0.01743554    -0.06400
H1519       H  0.34369141  0.50415738  0.98005269     0.06100
H1520       H  0.33441621  0.60719458  0.02761816     0.09500
Br1521     Br  0.28882836  0.54239024  0.95966482    -0.06100
Br1522     Br  0.25609286  0.43281156  0.03817090    -0.03000
Br1523     Br  0.39038763  0.54570253  0.97066236    -0.00200
Br1524     Br  0.28706270  0.56591406  0.03539896    -0.04500
C1525       C  0.20191788  0.79982910  0.95749220    -0.11900
C1526       C  0.22557981  0.81955546  0.95868029     0.03500
C1527       C  0.24959318  0.80410203  0.95301224    -0.12500
C1528       C  0.25052083  0.76921415  0.94605306     0.18400
C1529       C  0.22660947  0.75116913  0.94211961    -0.09500
C1530       C  0.20241787  0.76662153  0.94777133    -0.02500
H1531       H  0.26785156  0.81833129  0.95599558     0.04900
C1532       C  0.27590970  0.75037157  0.94881355     0.20400
H1533       H  0.18435778  0.75137437  0.94638284     0.10100
C1534       C  0.27758663  0.72605517  0.96560614    -0.15900
C1535       C  0.30206587  0.71446240  0.97335956     0.03100
C1536       C  0.32581981  0.72752940  0.96420728    -0.11200
C1537       C  0.32392582  0.74973391  0.94617740    -0.01200
C1538       C  0.29925698  0.76129798  0.93855780    -0.06400
H1539       H  0.25968600  0.71771148  0.97371392     0.06100
H1540       H  0.34168842  0.75958695  0.93855099     0.09500
Br1541     Br  0.22643564  0.70431812  0.93095770    -0.06100
Br1542     Br  0.22674875  0.86673951  0.96951003    -0.03000
Br1543     Br  0.30071379  0.68178685  0.99690491    -0.00200
Br1544     Br  0.29833324  0.79318766  0.91476213    -0.04500
C1545       C  0.41440675  0.64262978  0.91972771    -0.11900
C1546       C  0.42636969  0.65817209  0.90164079     0.03500
C1547       C  0.41648991  0.65181525  0.88098653    -0.12500
C1548       C  0.39423098  0.63048473  0.87770121     0.18400
C1549       C  0.38300778  0.61324674  0.89552177    -0.09500
C1550       C  0.39319040  0.61923605  0.91632027    -0.02500
H1551       H  0.42536860  0.66520500  0.86746875     0.04900
C1552       C  0.38174592  0.63043836  0.85594746     0.20400
H1553       H  0.38331062  0.60753747  0.92995330     0.10100
C1554       C  0.39393210  0.61228042  0.83901921    -0.15900
C1555       C  0.38635382  0.61834873  0.81756271     0.03100
C1556       C  0.36646743  0.64327960  0.81273195    -0.11200
C1557       C  0.35328646  0.65979710  0.82976526    -0.01200
C1558       C  0.36066969  0.65355006  0.85113552    -0.06400
H1559       H  0.41044376  0.59488728  0.84241356     0.06100
H1560       H  0.33828748  0.67945283  0.82635730     0.09500
Br1561     Br  0.35285645  0.58310199  0.89222335    -0.06100
Br1562     Br  0.45547610  0.68996496  0.90425387    -0.03000
Br1563     Br  0.40606580  0.59546538  0.79536496    -0.00200
Br1564     Br  0.34344696  0.68042843  0.87303934    -0.04500
C1565       C  0.60291941  0.84335531  0.99976261    -0.11900
C1566       C  0.57517717  0.84912000  0.00208379     0.03500
C1567       C  0.55721078  0.82182264  0.99833008    -0.12500
C1568       C  0.56583979  0.78853734  0.99205567     0.18400
C1569       C  0.59316641  0.78260787  0.98930409    -0.09500
C1570       C  0.61142243  0.80977037  0.99320374    -0.02500
H1571       H  0.53613277  0.82673230  0.00005735     0.04900
C1572       C  0.54546169  0.76135371  0.98759390     0.20400
H1573       H  0.63236501  0.80451333  0.99104994     0.10100
C1574       C  0.53244959  0.76180074  0.96772985    -0.15900
C1575       C  0.50955238  0.74180166  0.96422733     0.03100
C1576       C  0.49929048  0.72022727  0.98071616    -0.11200
C1577       C  0.51347553  0.71803328  0.00016391    -0.01200
C1578       C  0.53615284  0.73873418  0.00376347    -0.06400
H1579       H  0.53937092  0.77924098  0.95521965     0.06100
H1580       H  0.50582029  0.70220269  0.01317211     0.09500
Br1581     Br  0.60622938  0.73800100  0.97993063    -0.06100
Br1582     Br  0.55947279  0.89363588  0.00914367    -0.03000
Br1583     Br  0.49277588  0.74648038  0.93677215    -0.00200
Br1584     Br  0.55246584  0.73783931  0.03158542    -0.04500
C1585       C  0.38626255  0.98564028  0.01981746    -0.11900
C1586       C  0.36920402  0.96079458  0.01007386     0.03500
C1587       C  0.37292358  0.92512325  0.01410507    -0.12500
C1588       C  0.39312378  0.91345753  0.02790354     0.18400
C1589       C  0.40887444  0.93810721  0.03880204    -0.09500
C1590       C  0.40528594  0.97389820  0.03480834    -0.02500
H1591       H  0.36058587  0.90621619  0.00577166     0.04900
C1592       C  0.39904921  0.87558397  0.02848899     0.20400
H1593       H  0.41843775  0.99242289  0.04261182     0.10100
C1594       C  0.42207097  0.86350022  0.01832400    -0.15900
C1595       C  0.42532630  0.82791423  0.01368362     0.03100
C1596       C  0.40508148  0.80391174  0.01907623    -0.11200
C1597       C  0.38336153  0.81567611  0.03116347    -0.01200
C1598       C  0.38018585  0.85126123  0.03578540    -0.06400
H1599       H  0.43685548  0.88206752  0.01288371     0.06100
H1600       H  0.36780204  0.79758785  0.03571514     0.09500
Br1601     Br  0.43593549  0.92397125  0.05874936    -0.06100
Br1602     Br  0.34053936  0.97329371  0.99102453    -0.03000
Br1603     Br  0.45752659  0.81387918  0.99965637    -0.00200
Br1604     Br  0.34905123  0.86583453  0.05096129    -0.04500
C1605       C  0.59759656  0.89569610  0.32350345    -0.11900
C1606       C  0.61836995  0.87811388  0.33415531     0.03500
C1607       C  0.61694282  0.87257104  0.35627480    -0.12500
C1608       C  0.59510931  0.88478241  0.36796460     0.18400
C1609       C  0.57405088  0.90166632  0.35723123    -0.09500
C1610       C  0.57540456  0.90691696  0.33509567    -0.02500
H1611       H  0.63322276  0.85959651  0.36448850     0.04900
C1612       C  0.59494584  0.88012580  0.39139147     0.20400
H1613       H  0.55977541  0.92146591  0.32710463     0.10100
C1614       C  0.61057980  0.90213674  0.40433638    -0.15900
C1615       C  0.61190122  0.89697264  0.42655730     0.03100
C1616       C  0.59749562  0.86939658  0.43591580    -0.11200
C1617       C  0.58186719  0.84754846  0.42292086    -0.01200
C1618       C  0.58036374  0.85285163  0.40082406    -0.06400
H1619       H  0.62213337  0.92290646  0.39707208     0.06100
H1620       H  0.57117546  0.82581338  0.42996783     0.09500
Br1621     Br  0.54411724  0.92021658  0.37237630    -0.06100
Br1622     Br  0.64992190  0.86397671  0.31934366    -0.03000
Br1623     Br  0.63521285  0.92604555  0.44321915    -0.00200
Br1624     Br  0.55913906  0.82132108  0.38401308    -0.04500
C1625       C  0.67350464  0.93752186  0.51137604    -0.11900
C1626       C  0.70057619  0.93047880  0.51625485     0.03500
C1627       C  0.71973358  0.95680139  0.51409183    -0.12500
C1628       C  0.71297667  0.99054614  0.50710310     0.18400
C1629       C  0.68616920  0.99806403  0.50248591    -0.09500
C1630       C  0.66673646  0.97172741  0.50459464    -0.02500
H1631       H  0.74036892  0.95058173  0.51732312     0.04900
C1632       C  0.73494405  0.01555267  0.50251518     0.20400
H1633       H  0.64627030  0.97805212  0.50085244     0.10100
C1634       C  0.74982149  0.01038156  0.48387571    -0.15900
C1635       C  0.77355179  0.02855993  0.48041848     0.03100
C1636       C  0.78309089  0.05273278  0.49583133    -0.11200
C1637       C  0.76723965  0.05960477  0.51387930    -0.01200
C1638       C  0.74348299  0.04103994  0.51738987    -0.06400
H1639       H  0.74342354  0.99098125  0.47227450     0.06100
H1640       H  0.77412694  0.07785414  0.52593612     0.09500
Br1641     Br  0.67548570  0.04363411  0.49271202    -0.06100
Br1642     Br  0.71382931  0.88508211  0.52445928    -0.03000
Br1643     Br  0.79207101  0.01872386  0.45429865    -0.00200
Br1644     Br  0.72438120  0.04940150  0.54338969    -0.04500
C1645       C  0.69135882  0.77770513  0.48524519    -0.11900
C1646       C  0.69239844  0.74260750  0.47779669     0.03500
C1647       C  0.71703533  0.72614819  0.47520407    -0.12500
C1648       C  0.74060701  0.74404175  0.47987362     0.18400
C1649       C  0.73967933  0.77962044  0.48560510    -0.09500
C1650       C  0.71525441  0.79618461  0.48801887    -0.02500
H1651       H  0.71778096  0.69869149  0.47079612     0.04900
C1652       C  0.76570501  0.72463612  0.48194440     0.20400
H1653       H  0.71501169  0.82319781  0.49331484     0.10100
C1654       C  0.78540100  0.72884201  0.46641969    -0.15900
C1655       C  0.81144788  0.71781801  0.47045098     0.03100
C1656       C  0.81807653  0.70295746  0.49062810    -0.11200
C1657       C  0.79754983  0.69595576  0.50524503    -0.01200
C1658       C  0.77158598  0.70661016  0.50104004    -0.06400
H1659       H  0.78073990  0.74221322  0.45152695     0.06100
H1660       H  0.80183210  0.68389065  0.52061075     0.09500
Br1661     Br  0.77116117  0.80563235  0.49268530    -0.06100
Br1662     Br  0.66146949  0.71417707  0.47299751    -0.03000
Br1663     Br  0.83655362  0.72411540  0.44767708    -0.00200
Br1664     Br  0.74534913  0.69897190  0.52278835    -0.04500
C1665       C  0.52192127  0.82184799  0.50288842    -0.11900
C1666       C  0.50835643  0.80757184  0.48502550     0.03500
C1667       C  0.48485034  0.78870994  0.48789473    -0.12500
C1668       C  0.47437124  0.78339697  0.50839718     0.18400
C1669       C  0.48659152  0.80006679  0.52605400    -0.09500
C1670       C  0.51009910  0.81934367  0.52319409    -0.02500
H1671       H  0.47566426  0.77611331  0.47417588     0.04900
C1672       C  0.45412112  0.75540908  0.51109363     0.20400
H1673       H  0.52018495  0.83003340  0.53710294     0.10100
C1674       C  0.46222958  0.72356125  0.52016870    -0.15900
C1675       C  0.44590731  0.69389754  0.51966709     0.03100
C1676       C  0.42050799  0.69547362  0.50957374    -0.11200
C1677       C  0.41197336  0.72818428  0.50143521    -0.01200
C1678       C  0.42849909  0.75784621  0.50212288    -0.06400
H1679       H  0.48197651  0.72139423  0.52703780     0.06100
H1680       H  0.39255746  0.73068211  0.49405808     0.09500
Br1681     Br  0.47260101  0.79551415  0.55444216    -0.06100
Br1682     Br  0.52173138  0.81134348  0.45635763    -0.03000
Br1683     Br  0.46068530  0.65266279  0.53300079    -0.00200
Br1684     Br  0.41538090  0.80124596  0.49067597    -0.04500
C1685       C  0.63334094  0.55004381  0.54019214    -0.11900
C1686       C  0.65341080  0.57588784  0.54072306     0.03500
C1687       C  0.64761505  0.60959583  0.54788032    -0.12500
C1688       C  0.62231982  0.61827548  0.55549172     0.18400
C1689       C  0.60342656  0.59123249  0.55789168    -0.09500
C1690       C  0.60893834  0.55749755  0.55008219    -0.02500
H1691       H  0.66252828  0.62976781  0.54592755     0.04900
C1692       C  0.61495042  0.65606297  0.55592749     0.20400
H1693       H  0.59347007  0.53780575  0.55051892     0.10100
C1694       C  0.59375866  0.66716200  0.54289455    -0.15900
C1695       C  0.59094501  0.70223929  0.53685809     0.03100
C1696       C  0.61067132  0.72688401  0.54280965    -0.11200
C1697       C  0.62996643  0.71657893  0.55798887    -0.01200
C1698       C  0.63192250  0.68167227  0.56482335    -0.06400
H1699       H  0.58027434  0.64810409  0.53601913     0.06100
H1700       H  0.64458381  0.73519342  0.56371664     0.09500
Br1701     Br  0.56952360  0.59947561  0.57085708    -0.06100
Br1702     Br  0.68900952  0.56782438  0.53121946    -0.03000
Br1703     Br  0.56001013  0.71360710  0.51998489    -0.00200
Br1704     Br  0.65890592  0.67000256  0.58550294    -0.04500
C1705       C  0.68898529  0.87171775  0.82054088    -0.11900
C1706       C  0.68377852  0.90450132  0.83003266     0.03500
C1707       C  0.68607439  0.90817523  0.85232852    -0.12500
C1708       C  0.69352967  0.87958527  0.86525645     0.18400
C1709       C  0.69981894  0.84739637  0.85569509    -0.09500
C1710       C  0.69759435  0.84370312  0.83353313    -0.02500
H1711       H  0.68109234  0.93301952  0.85970382     0.04900
C1712       C  0.69273183  0.88302974  0.88875823     0.20400
H1713       H  0.70187525  0.81839677  0.82644466     0.10100
C1714       C  0.66987032  0.87223738  0.89967320    -0.15900
C1715       C  0.66737967  0.87805428  0.92169438     0.03100
C1716       C  0.68814310  0.89433510  0.93306670    -0.11200
C1717       C  0.71149445  0.90361903  0.92232535    -0.01200
C1718       C  0.71388513  0.89811427  0.90025452    -0.06400
H1719       H  0.65354658  0.86050652  0.89087916     0.06100
H1720       H  0.72725971  0.91699713  0.93088186     0.09500
Br1721     Br  0.71057236  0.80749589  0.87239086    -0.06100
Br1722     Br  0.67100844  0.94380588  0.81372622    -0.03000
Br1723     Br  0.63463600  0.86576997  0.93539628    -0.00200
Br1724     Br  0.74569072  0.91308601  0.88620769    -0.04500
C1725       C  0.84913931  0.69219339  0.74309405    -0.11900
C1726       C  0.82122754  0.68810035  0.74510631     0.03500
C1727       C  0.80448087  0.71726349  0.74330429    -0.12500
C1728       C  0.81464651  0.75089002  0.73969825     0.18400
C1729       C  0.84221161  0.75528510  0.73768576    -0.09500
C1730       C  0.85918662  0.72615386  0.73934113    -0.02500
H1731       H  0.78327714  0.71383194  0.74527548     0.04900
C1732       C  0.79596497  0.78094894  0.74007715     0.20400
H1733       H  0.88034361  0.73014353  0.73758778     0.10100
C1734       C  0.79195832  0.79838571  0.75955646    -0.15900
C1735       C  0.77015845  0.82066915  0.76228460     0.03100
C1736       C  0.75214939  0.82635081  0.74523383    -0.11200
C1737       C  0.75751058  0.81137632  0.72516107    -0.01200
C1738       C  0.77909665  0.78847287  0.72256370    -0.06400
H1739       H  0.80469686  0.79261644  0.77316477     0.06100
H1740       H  0.74350395  0.81475526  0.71207447     0.09500
Br1741     Br  0.85732785  0.80059540  0.73253595    -0.06100
Br1742     Br  0.80411724  0.64429845  0.75168397    -0.03000
Br1743     Br  0.76413938  0.83993920  0.79027479    -0.00200
Br1744     Br  0.78339648  0.76543026  0.69550348    -0.04500
C1745       C  0.65889918  0.73573036  0.71421012    -0.11900
C1746       C  0.67962367  0.71089861  0.71720881     0.03500
C1747       C  0.67569211  0.67610580  0.71096213    -0.12500
C1748       C  0.65187526  0.66566401  0.70121564     0.18400
C1749       C  0.63345011  0.69142611  0.69487689    -0.09500
C1750       C  0.63695918  0.72611147  0.70145407    -0.02500
H1751       H  0.69027274  0.65656069  0.71557795     0.04900
C1752       C  0.64353978  0.62879452  0.70392933     0.20400
H1753       H  0.62136010  0.74485375  0.69796064     0.10100
C1754       C  0.62264478  0.62246972  0.71809916    -0.15900
C1755       C  0.61739989  0.58895188  0.72581847     0.03100
C1756       C  0.63361708  0.56035628  0.71942037    -0.11200
C1757       C  0.65332501  0.56645795  0.70384978    -0.01200
C1758       C  0.65841860  0.60035275  0.69619340    -0.06400
H1759       H  0.61126644  0.64430767  0.72433624     0.06100
H1760       H  0.66573488  0.54514165  0.69831638     0.09500
Br1761     Br  0.60183028  0.67952537  0.67925358    -0.06100
Br1762     Br  0.71306075  0.72116141  0.73091890    -0.03000
Br1763     Br  0.58883584  0.58623958  0.74617350    -0.00200
Br1764     Br  0.68631666  0.60686991  0.67577498    -0.04500
C1765       C  0.45936570  0.73147164  0.76892570    -0.11900
C1766       C  0.46777047  0.72278178  0.78991701     0.03500
C1767       C  0.49342774  0.73195223  0.79673848    -0.12500
C1768       C  0.51047304  0.75016588  0.78296546     0.18400
C1769       C  0.50180113  0.75936504  0.76223146    -0.09500
C1770       C  0.47657353  0.74981512  0.75536799    -0.02500
H1771       H  0.50016289  0.72463539  0.81264781     0.04900
C1772       C  0.53787029  0.75838948  0.78933134     0.20400
H1773       H  0.47025041  0.75712804  0.73933390     0.10100
C1774       C  0.55785643  0.73497170  0.78310731    -0.15900
C1775       C  0.58371490  0.74688004  0.77970389     0.03100
C1776       C  0.58957212  0.78267689  0.78274224    -0.11200
C1777       C  0.57040163  0.80480770  0.79180695    -0.01200
C1778       C  0.54460667  0.79283409  0.79518401    -0.06400
H1779       H  0.55266454  0.70848151  0.77842475     0.06100
H1780       H  0.57480511  0.83231741  0.79432798     0.09500
Br1781     Br  0.52385033  0.78473696  0.74249747    -0.06100
Br1782     Br  0.44576138  0.69681859  0.80931010    -0.03000
Br1783     Br  0.60850670  0.71483441  0.76698389    -0.00200
Br1784     Br  0.51823709  0.82579425  0.80437157    -0.04500
C1785       C  0.65712216  0.89957151  0.68124958    -0.11900
C1786       C  0.66797180  0.88125055  0.66381533     0.03500
C1787       C  0.65736938  0.88601297  0.64324880    -0.12500
C1788       C  0.63575627  0.90863489  0.63983712     0.18400
C1789       C  0.62618788  0.92891354  0.65693618    -0.09500
C1790       C  0.63705540  0.92448269  0.67748255    -0.02500
H1791       H  0.66492115  0.87041815  0.63010643     0.04900
C1792       C  0.62176035  0.90715270  0.61900325     0.20400
H1793       H  0.62803610  0.93799909  0.69088105     0.10100
C1794       C  0.60416558  0.87930438  0.61523945    -0.15900
C1795       C  0.59519023  0.87196725  0.59448181     0.03100
C1796       C  0.60369915  0.89284446  0.57720842    -0.11200
C1797       C  0.61891460  0.92294128  0.58136667    -0.01200
C1798       C  0.62825495  0.92994989  0.60210232    -0.06400
H1799       H  0.59886598  0.86183023  0.62824371     0.06100
H1800       H  0.62603770  0.93879591  0.56815997     0.09500
Br1801     Br  0.59652805  0.95994741  0.65332717    -0.06100
Br1802     Br  0.69554397  0.84710548  0.66786489    -0.03000
Br1803     Br  0.57341690  0.83129985  0.59001828    -0.00200
Br1804     Br  0.65235851  0.96824638  0.60618274    -0.04500
C1805       C  0.60263128  0.94383930  0.75713720    -0.11900
C1806       C  0.60891818  0.97994447  0.75789630     0.03500
C1807       C  0.58877889  0.00488308  0.76128968    -0.12500
C1808       C  0.56224455  0.99463716  0.76416585     0.18400
C1809       C  0.55604560  0.95857946  0.76363674    -0.09500
C1810       C  0.57606791  0.93374194  0.76018849    -0.02500
H1811       H  0.59377002  0.03251004  0.76129350     0.04900
C1812       C  0.54105619  0.02181656  0.76600758     0.20400
H1813       H  0.57072238  0.90623697  0.75960092     0.10100
C1814       C  0.53464916  0.04242639  0.74803892    -0.15900
C1815       C  0.51307314  0.06578088  0.74832639     0.03100
C1816       C  0.49725843  0.06887287  0.76688729    -0.11200
C1817       C  0.50451138  0.04934464  0.78518273    -0.01200
C1818       C  0.52632657  0.02639971  0.78495337    -0.06400
H1819       H  0.54587329  0.03929955  0.73339255     0.06100
H1820       H  0.49276722  0.05136781  0.79963135     0.09500
Br1821     Br  0.52031646  0.94175392  0.76620237    -0.06100
Br1822     Br  0.64408801  0.99704499  0.75263545    -0.03000
Br1823     Br  0.50468064  0.08985437  0.72215290    -0.00200
Br1824     Br  0.53523127  0.00178968  0.81086698    -0.04500
C1825       C  0.09426273  0.36290546  0.42814751    -0.11900
C1826       C  0.09465614  0.39736909  0.41989733     0.03500
C1827       C  0.09113231  0.40278301  0.39782169    -0.12500
C1828       C  0.08730465  0.37433313  0.38386586     0.18400
C1829       C  0.08560911  0.34027693  0.39219880    -0.09500
C1830       C  0.08884365  0.33484505  0.41412569    -0.02500
H1831       H  0.09275356  0.42908008  0.39135827     0.04900
C1832       C  0.08882695  0.38003950  0.36057301     0.20400
H1833       H  0.08800064  0.30820120  0.42015326     0.10100
C1834       C  0.11260603  0.37167325  0.35017243    -0.15900
C1835       C  0.11610911  0.37990357  0.32859015     0.03100
C1836       C  0.09555591  0.39647621  0.31713005    -0.11200
C1837       C  0.07128011  0.40336494  0.32720143    -0.01200
C1838       C  0.06777797  0.39513321  0.34887687    -0.06400
H1839       H  0.12884859  0.35994484  0.35911469     0.06100
H1840       H  0.05555724  0.41669070  0.31849602     0.09500
Br1841     Br  0.08017678  0.30024513  0.37407218    -0.06100
Br1842     Br  0.10261368  0.43742880  0.43735660    -0.03000
Br1843     Br  0.14993874  0.37058004  0.31574950    -0.00200
Br1844     Br  0.03445271  0.40577885  0.36207830    -0.04500
C1845       C  0.03600048  0.30191752  0.50109343    -0.11900
C1846       C  0.02235986  0.30435354  0.52078683     0.03500
C1847       C  0.99922040  0.28441185  0.52406572    -0.12500
C1848       C  0.98934232  0.26201175  0.50799706     0.18400
C1849       C  0.00215995  0.26104565  0.48804550    -0.09500
C1850       C  0.02499699  0.28094844  0.48473000    -0.02500
H1851       H  0.98946503  0.28533373  0.53949011     0.04900
C1852       C  0.96711851  0.23756549  0.51253780     0.20400
H1853       H  0.03491461  0.27874349  0.46941521     0.10100
C1854       C  0.94267649  0.24190137  0.50196475    -0.15900
C1855       C  0.92267950  0.21635724  0.50332600     0.03100
C1856       C  0.92682019  0.18572141  0.51583873    -0.11200
C1857       C  0.95110241  0.18237299  0.52703914    -0.01200
C1858       C  0.97110922  0.20763070  0.52534330    -0.06400
H1859       H  0.93960254  0.26462678  0.49180131     0.06100
H1860       H  0.95500488  0.15937425  0.53676834     0.09500
Br1861     Br  0.99072131  0.23044260  0.46536814    -0.06100
Br1862     Br  0.03543194  0.33176116  0.54434487    -0.03000
Br1863     Br  0.89148902  0.22412539  0.48614078    -0.00200
Br1864     Br  0.00441392  0.19855394  0.53941424    -0.04500
C1865       C  0.16333518  0.04194887  0.52946266    -0.11900
C1866       C  0.18073094  0.06785929  0.52117741     0.03500
C1867       C  0.17736602  0.10282664  0.52700866    -0.12500
C1868       C  0.15746362  0.11298497  0.54130443     0.18400
C1869       C  0.14199947  0.08701620  0.55127263    -0.09500
C1870       C  0.14498132  0.05187059  0.54531261    -0.02500
H1871       H  0.18927548  0.12261820  0.51911813     0.04900
C1872       C  0.15025069  0.15058759  0.54191239     0.20400
H1873       H  0.13192247  0.03253633  0.55236708     0.10100
C1874       C  0.12527829  0.16043146  0.53392269    -0.15900
C1875       C  0.12003939  0.19501452  0.52786574     0.03100
C1876       C  0.14049495  0.22045045  0.52911567    -0.11200
C1877       C  0.16450631  0.21122073  0.53931844    -0.01200
C1878       C  0.16941676  0.17668100  0.54576991    -0.06400
H1879       H  0.11027440  0.14064530  0.53099161     0.06100
H1880       H  0.18023338  0.23034228  0.54114178     0.09500
Br1881     Br  0.11591699  0.09850375  0.57243834    -0.06100
Br1882     Br  0.20807115  0.05930060  0.50034137    -0.03000
Br1883     Br  0.08472854  0.20465532  0.51747033    -0.00200
Br1884     Br  0.20315316  0.16588081  0.55861677    -0.04500
C1885       C  0.17648613  0.44121287  0.49646360    -0.11900
C1886       C  0.19785690  0.44854343  0.51066598     0.03500
C1887       C  0.21526814  0.47617362  0.50634105    -0.12500
C1888       C  0.21190703  0.49756068  0.48825873     0.18400
C1889       C  0.18988537  0.49168702  0.47469054    -0.09500
C1890       C  0.17236519  0.46382304  0.47887888    -0.02500
H1891       H  0.23206169  0.48046963  0.51694654     0.04900
C1892       C  0.23338075  0.52287010  0.48292722     0.20400
H1893       H  0.15598085  0.45917422  0.46793781     0.10100
C1894       C  0.24965311  0.51574794  0.46531195    -0.15900
C1895       C  0.27352232  0.53382743  0.46227314     0.03100
C1896       C  0.28175850  0.55971874  0.47717024    -0.11200
C1897       C  0.26430287  0.56883033  0.49379849    -0.01200
C1898       C  0.24040696  0.55055854  0.49680511    -0.06400
H1899       H  0.24443866  0.49467754  0.45443964     0.06100
H1900       H  0.26996667  0.58874367  0.50531269     0.09500
Br1901     Br  0.18303289  0.52110119  0.45032810    -0.06100
Br1902     Br  0.20442422  0.42272396  0.53667998    -0.03000
Br1903     Br  0.29399178  0.52114765  0.43758114    -0.00200
Br1904     Br  0.21841833  0.56337597  0.52054691    -0.04500
C1905       C  0.18643397  0.36420056  0.81760200    -0.11900
C1906       C  0.20530678  0.34434484  0.82929106     0.03500
C1907       C  0.20735645  0.34820386  0.85154708    -0.12500
C1908       C  0.19064409  0.37140083  0.86244213     0.18400
C1909       C  0.17223425  0.39181159  0.85073698    -0.09500
C1910       C  0.17040615  0.38831516  0.82846968    -0.02500
H1911       H  0.22190728  0.33295810  0.86039705     0.04900
C1912       C  0.19308901  0.37541632  0.88590402     0.20400
H1913       H  0.15549686  0.40319237  0.81976610     0.10100
C1914       C  0.20360570  0.40675760  0.89384412    -0.15900
C1915       C  0.20162379  0.41497563  0.91551845     0.03100
C1916       C  0.18897932  0.39156222  0.92968862    -0.11200
C1917       C  0.18070599  0.35867644  0.92218049    -0.01200
C1918       C  0.18271440  0.35045028  0.90031847    -0.06400
H1919       H  0.21214740  0.42572111  0.88291919     0.06100
H1920       H  0.17115113  0.34041389  0.93298282     0.09500
Br1921     Br  0.14805567  0.42326395  0.86466211    -0.06100
Br1922     Br  0.22908766  0.31209660  0.81557394    -0.03000
Br1923     Br  0.21556686  0.45932726  0.92480406    -0.00200
Br1924     Br  0.16909488  0.30628323  0.89059981    -0.04500
C1925       C  0.09903749  0.44435937  0.75509979    -0.11900
C1926       C  0.10579052  0.47349922  0.76799790     0.03500
C1927       C  0.08751814  0.50115743  0.77054625    -0.12500
C1928       C  0.06254988  0.50034110  0.76034132     0.18400
C1929       C  0.05624179  0.47174868  0.74701927    -0.09500
C1930       C  0.07431046  0.44436754  0.74451935    -0.02500
H1931       H  0.09250299  0.52291664  0.78095639     0.04900
C1932       C  0.04215415  0.52752476  0.76477922     0.20400
H1933       H  0.06876287  0.42258820  0.73429657     0.10100
C1934       C  0.03319570  0.54929600  0.74803777    -0.15900
C1935       C  0.00953214  0.56846258  0.74991488     0.03100
C1936       C  0.99460220  0.56639302  0.76895845    -0.11200
C1937       C  0.00476185  0.54682899  0.78626373    -0.01200
C1938       C  0.02831772  0.52760164  0.78434136    -0.06400
H1939       H  0.04355396  0.54921430  0.73285813     0.06100
H1940       H  0.99349982  0.54487890  0.80097230     0.09500
Br1941     Br  0.02246585  0.46755962  0.73278682    -0.06100
Br1942     Br  0.13857178  0.47576523  0.78370487    -0.03000
Br1943     Br  0.99667446  0.59256038  0.72491286    -0.00200
Br1944     Br  0.03911691  0.49877834  0.80807788    -0.04500
C1945       C  0.24319655  0.30870456  0.74090424    -0.11900
C1946       C  0.26567999  0.32711153  0.74864349     0.03500
C1947       C  0.29119335  0.31227113  0.74682498    -0.12500
C1948       C  0.29489688  0.27923006  0.73733357     0.18400
C1949       C  0.27258230  0.26135172  0.72916642    -0.09500
C1950       C  0.24725766  0.27617526  0.73084827    -0.02500
H1951       H  0.30811836  0.32603118  0.75350380     0.04900
C1952       C  0.32137588  0.26175577  0.73802225     0.20400
H1953       H  0.23043289  0.26150625  0.72486889     0.10100
C1954       C  0.33047915  0.24764549  0.75751778    -0.15900
C1955       C  0.35252744  0.22511689  0.75825056     0.03100
C1956       C  0.36588185  0.21607827  0.73916879    -0.11200
C1957       C  0.35766638  0.23188582  0.71984481    -0.01200
C1958       C  0.33594657  0.25500831  0.71923625    -0.06400
H1959       H  0.31945001  0.25255586  0.77207281     0.06100
H1960       H  0.36766837  0.22542592  0.70505179     0.09500
Br1961     Br  0.27527328  0.21504222  0.71729657    -0.06100
Br1962     Br  0.26268916  0.37071502  0.76377293    -0.03000
Br1963     Br  0.36132719  0.20403557  0.78534999    -0.00200
Br1964     Br  0.32628974  0.27601316  0.69233846    -0.04500
C1965       C  0.13106669  0.23266108  0.71169110    -0.11900
C1966       C  0.15031031  0.20581159  0.71111118     0.03500
C1967       C  0.14328551  0.17255156  0.70388522    -0.12500
C1968       C  0.11728103  0.16524318  0.69712226     0.18400
C1969       C  0.09876884  0.19285661  0.69565054    -0.09500
C1970       C  0.10582361  0.22637074  0.70277399    -0.02500
H1971       H  0.15771916  0.15156174  0.70523408     0.04900
C1972       C  0.10908684  0.12804744  0.69695227     0.20400
H1973       H  0.09084737  0.24677912  0.70288235     0.10100
C1974       C  0.09104583  0.11719364  0.71260628    -0.15900
C1975       C  0.08986336  0.08227390  0.71915710     0.03100
C1976       C  0.10797104  0.05754826  0.71045774    -0.11200
C1977       C  0.12334941  0.06769755  0.69271922    -0.01200
C1978       C  0.12375325  0.10258903  0.68580612    -0.06400
H1979       H  0.07940064  0.13647687  0.72118003     0.06100
H1980       H  0.13638613  0.04903139  0.68500293     0.09500
Br1981     Br  0.06318198  0.18545718  0.68553778    -0.06100
Br1982     Br  0.18613253  0.21206134  0.72097068    -0.03000
Br1983     Br  0.06424218  0.07211708  0.74114160    -0.00200
Br1984     Br  0.14606879  0.11499629  0.66216126    -0.04500
C1985       C  0.14990183  0.39140432  0.67987763    -0.11900
C1986       C  0.17076086  0.38484652  0.66542885     0.03500
C1987       C  0.16586264  0.38668381  0.64324172    -0.12500
C1988       C  0.14047061  0.39510480  0.63529394     0.18400
C1989       C  0.12036592  0.40436367  0.64967233    -0.09500
C1990       C  0.12525805  0.40290121  0.67166809    -0.02500
H1991       H  0.18146117  0.37955369  0.63217341     0.04900
C1992       C  0.13415145  0.38947731  0.61240381     0.20400
H1993       H  0.10901729  0.40849497  0.68247681     0.10100
C1994       C  0.12422841  0.35670146  0.60611572    -0.15900
C1995       C  0.11902805  0.34948535  0.58454149     0.03100
C1996       C  0.12346138  0.37543726  0.56888524    -0.11200
C1997       C  0.13211818  0.40884069  0.57529613    -0.01200
C1998       C  0.13755743  0.41594290  0.59693279    -0.06400
H1999       H  0.12110834  0.33639939  0.61800822     0.06100
H2000       H  0.13618985  0.42873405  0.56333914     0.09500
Br2001     Br  0.08519487  0.41596349  0.64000872    -0.06100
Br2002     Br  0.20516106  0.36959641  0.67489634    -0.03000
Br2003     Br  0.10659687  0.30349775  0.57702441    -0.00200
Br2004     Br  0.15065164  0.46140934  0.60463331    -0.04500
C2005       C  0.43829694  0.14594102  0.57230037    -0.11900
C2006       C  0.46103457  0.16458427  0.57903601     0.03500
C2007       C  0.46786698  0.16576518  0.60091556    -0.12500
C2008       C  0.45239560  0.14820565  0.61618670     0.18400
C2009       C  0.43017614  0.12873621  0.60930241    -0.09500
C2010       C  0.42325317  0.12790396  0.58759418    -0.02500
H2011       H  0.48483496  0.18106347  0.60606959     0.04900
C2012       C  0.45794938  0.15186496  0.63943191     0.20400
H2013       H  0.40554494  0.11387753  0.58267895     0.10100
C2014       C  0.44649974  0.18000859  0.65054316    -0.15900
C2015       C  0.44353964  0.17868446  0.67287135     0.03100
C2016       C  0.45182897  0.14867199  0.68431092    -0.11200
C2017       C  0.46567317  0.12222596  0.67339227    -0.01200
C2018       C  0.46919494  0.12398113  0.65115709    -0.06400
H2019       H  0.43774979  0.20159635  0.64166830     0.06100
H2020       H  0.47185713  0.09879342  0.68186806     0.09500
Br2021     Br  0.40770394  0.10447788  0.62919014    -0.06100
Br2022     Br  0.48190902  0.19115074  0.55923537    -0.03000
Br2023     Br  0.42424777  0.21579194  0.68650738    -0.00200
Br2024     Br  0.48683961  0.08595505  0.63705808    -0.04500
C2025       C  0.35822697  0.06848682  0.51239997    -0.11900
C2026       C  0.36458392  0.03595824  0.50261283     0.03500
C2027       C  0.34555550  0.00896678  0.50161206    -0.12500
C2028       C  0.31978094  0.01360698  0.50965706     0.18400
C2029       C  0.31352186  0.04567430  0.51963190    -0.09500
C2030       C  0.33256973  0.07229225  0.52110597    -0.02500
H2031       H  0.35063283  0.98451056  0.49381547     0.04900
C2032       C  0.29897829  0.98624703  0.50607856     0.20400
H2033       H  0.32680044  0.09666446  0.52866582     0.10100
C2034       C  0.28606683  0.97069137  0.52366408    -0.15900
C2035       C  0.26314134  0.95010199  0.52080540     0.03100
C2036       C  0.25293447  0.94433686  0.49997820    -0.11200
C2037       C  0.26729153  0.95736123  0.48239327    -0.01200
C2038       C  0.28991813  0.97816455  0.48523700    -0.06400
H2039       H  0.29290712  0.97637802  0.53977915     0.06100
H2040       H  0.25978763  0.95333902  0.46627011     0.09500
Br2041     Br  0.27852931  0.05584135  0.53005772    -0.06100
Br2042     Br  0.39794281  0.02677961  0.48895956    -0.03000
Br2043     Br  0.24478850  0.93456583  0.54597017    -0.00200
Br2044     Br  0.30565190  0.99818316  0.46005969    -0.04500
C2045       C  0.49772032  0.20904763  0.49403533    -0.11900
C2046       C  0.51776230  0.20308102  0.47878082     0.03500
C2047       C  0.53984627  0.22564479  0.47787371    -0.12500
C2048       C  0.54227024  0.25386696  0.49224795     0.18400
C2049       C  0.52322979  0.25793733  0.50848007    -0.09500
C2050       C  0.50116910  0.23587701  0.50913711    -0.02500
H2051       H  0.55445479  0.22215833  0.46537623     0.04900
C2052       C  0.56273244  0.28134626  0.48912435     0.20400
H2053       H  0.48584174  0.24090679  0.52085203     0.10100
C2054       C  0.55478436  0.31371990  0.48057040    -0.15900
C2055       C  0.57159792  0.34291272  0.48121032     0.03100
C2056       C  0.59720301  0.34009088  0.49057362    -0.11200
C2057       C  0.60577185  0.30677980  0.49763438    -0.01200
C2058       C  0.58874644  0.27765514  0.49705602    -0.06400
H2059       H  0.53483317  0.31669230  0.47423844     0.06100
H2060       H  0.62525831  0.30370965  0.50481175     0.09500
Br2061     Br  0.52576191  0.29471249  0.52939007    -0.06100
Br2062     Br  0.51453143  0.16656214  0.45785914    -0.03000
Br2063     Br  0.55783392  0.38563099  0.46922557    -0.00200
Br2064     Br  0.60101277  0.23405565  0.50879204    -0.04500
C2065       C  0.37442057  0.47251439  0.51893300    -0.11900
C2066       C  0.35694663  0.44689655  0.51048136     0.03500
C2067       C  0.35977370  0.41179348  0.51661818    -0.12500
C2068       C  0.37936166  0.40155723  0.53141332     0.18400
C2069       C  0.39495220  0.42743796  0.54141811    -0.09500
C2070       C  0.39237558  0.46253542  0.53520244    -0.02500
H2071       H  0.34748303  0.39210095  0.50895817     0.04900
C2072       C  0.38610591  0.36386231  0.53317297     0.20400
H2073       H  0.40558714  0.48171957  0.54230888     0.10100
C2074       C  0.41051010  0.35269698  0.52488674    -0.15900
C2075       C  0.41587522  0.31712665  0.52190311     0.03100
C2076       C  0.39663256  0.29182463  0.52736621    -0.11200
C2077       C  0.37307090  0.30285651  0.53728715    -0.01200
C2078       C  0.36757976  0.33861428  0.53999417    -0.06400
H2079       H  0.42490319  0.37187701  0.51954945     0.06100
H2080       H  0.35803192  0.28380248  0.54150335     0.09500
Br2081     Br  0.42079979  0.41579605  0.56297676    -0.06100
Br2082     Br  0.32892971  0.45759895  0.49044567    -0.03000
Br2083     Br  0.44943109  0.30490802  0.50952315    -0.00200
Br2084     Br  0.33406735  0.35179582  0.55202546    -0.04500
C2085       C  0.32683037  0.21205907  0.47120013    -0.11900
C2086       C  0.32401968  0.22964475  0.45122503     0.03500
C2087       C  0.29884592  0.24043573  0.44428256    -0.12500
C2088       C  0.27646930  0.23469504  0.45699678     0.18400
C2089       C  0.27895219  0.21532810  0.47612323    -0.09500
C2090       C  0.30382270  0.20382157  0.48284051    -0.02500
H2091       H  0.29692260  0.25539184  0.42957049     0.04900
C2092       C  0.25158225  0.25347143  0.45236062     0.20400
H2093       H  0.30517944  0.18994680  0.49797255     0.10100
C2094       C  0.22846233  0.23415058  0.44837451    -0.15900
C2095       C  0.20351718  0.24870070  0.45244470     0.03100
C2096       C  0.20181987  0.28341181  0.46043338    -0.11200
C2097       C  0.22482710  0.30421172  0.46073517    -0.01200
C2098       C  0.24964578  0.28946199  0.45698107    -0.06400
H2099       H  0.22995326  0.20656428  0.44439821     0.06100
H2100       H  0.22387382  0.33125257  0.46600037     0.09500
Br2101     Br  0.24960415  0.20726965  0.49512263    -0.06100
Br2102     Br  0.35324319  0.24284932  0.43325067    -0.03000
Br2103     Br  0.17361622  0.21774459  0.44963655    -0.00200
Br2104     Br  0.28030083  0.31831014  0.46193643    -0.04500
C2105       C  0.35433462  0.13244679  0.07229631    -0.11900
C2106       C  0.32783400  0.13249160  0.07966186     0.03500
C2107       C  0.32258085  0.13619517  0.10173705    -0.12500
C2108       C  0.34338582  0.14026726  0.11663676     0.18400
C2109       C  0.36966780  0.14109731  0.10919875    -0.09500
C2110       C  0.37490339  0.13706546  0.08739184    -0.02500
H2111       H  0.30226118  0.13562830  0.10730789     0.04900
C2112       C  0.33810095  0.14349572  0.13997019     0.20400
H2113       H  0.39538420  0.13777193  0.08218613     0.10100
C2114       C  0.34069480  0.11373706  0.15312319    -0.15900
C2115       C  0.34254950  0.11696191  0.17551284     0.03100
C2116       C  0.34186025  0.15044343  0.18508353    -0.11200
C2117       C  0.33741549  0.17991990  0.17196224    -0.01200
C2118       C  0.33541617  0.17664094  0.14962327    -0.06400
H2119       H  0.34318438  0.08816103  0.14585806     0.06100
H2120       H  0.33718138  0.20587270  0.17901558     0.09500
Br2121     Br  0.39923786  0.14791927  0.12830036    -0.06100
Br2122     Br  0.29830250  0.12569305  0.06064610    -0.03000
Br2123     Br  0.34996609  0.07548893  0.19194874    -0.00200
Br2124     Br  0.33174683  0.21843707  0.13272357    -0.04500
C2125       C  0.28343034  0.21219736  0.26941112    -0.11900
C2126       C  0.27445994  0.23473627  0.28589798     0.03500
C2127       C  0.25141756  0.25481357  0.28296738    -0.12500
C2128       C  0.23690480  0.25321757  0.26376559     0.18400
C2129       C  0.24478360  0.22909491  0.24788421    -0.09500
C2130       C  0.26768905  0.20859309  0.25087447    -0.02500
H2131       H  0.24562017  0.27324973  0.29529613     0.04900
C2132       C  0.21659595  0.28071696  0.25939536     0.20400
H2133       H  0.27418684  0.19162609  0.23800575     0.10100
C2134       C  0.22259630  0.30676041  0.24435088    -0.15900
C2135       C  0.20576377  0.33544571  0.24104446     0.03100
C2136       C  0.18216780  0.33895224  0.25317005    -0.11200
C2137       C  0.17566513  0.31206324  0.26772825    -0.01200
C2138       C  0.19273086  0.28329034  0.27099693    -0.06400
H2139       H  0.24087941  0.30506556  0.23532668     0.06100
H2140       H  0.15761402  0.31383438  0.27701616     0.09500
Br2141     Br  0.22563737  0.22470328  0.22136980    -0.06100
Br2142     Br  0.29322084  0.24020002  0.31258632    -0.03000
Br2143     Br  0.21621919  0.36793683  0.21906641    -0.00200
Br2144     Br  0.18268850  0.24805935  0.29133947    -0.04500
C2145       C  0.39032475  0.48322921  0.22667864    -0.11900
C2146       C  0.41011623  0.45945447  0.23349781     0.03500
C2147       C  0.40641970  0.42350014  0.23068454    -0.12500
C2148       C  0.38333909  0.41056460  0.22082847     0.18400
C2149       C  0.36436916  0.43431170  0.21269757    -0.09500
C2150       C  0.36799659  0.47043846  0.21555541    -0.02500
H2151       H  0.42100246  0.40566907  0.23691564     0.04900
C2152       C  0.37844443  0.37237393  0.22164560     0.20400
H2153       H  0.35282762  0.48813505  0.21020367     0.10100
C2154       C  0.35738857  0.35987862  0.23415602    -0.15900
C2155       C  0.35510379  0.32421379  0.23896980     0.03100
C2156       C  0.37449469  0.30048305  0.23152510    -0.11200
C2157       C  0.39435444  0.31269338  0.21766617    -0.01200
C2158       C  0.39647868  0.34830729  0.21274182    -0.06400
H2159       H  0.34329427  0.37816331  0.24099588     0.06100
H2160       H  0.40924022  0.29477004  0.21155153     0.09500
Br2161     Br  0.33291015  0.41860538  0.19815598    -0.06100
Br2162     Br  0.44255845  0.47435151  0.24697158    -0.03000
Br2163     Br  0.32507148  0.30958613  0.25563061    -0.00200
Br2164     Br  0.42489895  0.36298125  0.19443718    -0.04500
C2165       C  0.53370572  0.96420140  0.25333252    -0.11900
C2166       C  0.51867971  0.97746781  0.27064164     0.03500
C2167       C  0.49469337  0.99488023  0.26681217    -0.12500
C2168       C  0.48507530  0.99967533  0.24591376     0.18400
C2169       C  0.49913536  0.98460729  0.22869506    -0.09500
C2170       C  0.52313501  0.96675889  0.23250308    -0.02500
H2171       H  0.48419632  0.00644384  0.28018087     0.04900
C2172       C  0.46315651  0.02523663  0.24245846     0.20400
H2173       H  0.53431858  0.95679339  0.21902902     0.10100
C2174       C  0.46922989  0.05712029  0.23255836    -0.15900
C2175       C  0.45083792  0.08453393  0.23156894     0.03100
C2176       C  0.42527331  0.08059421  0.24093641    -0.11200
C2177       C  0.41894162  0.04787702  0.25016507    -0.01200
C2178       C  0.43760731  0.02049060  0.25105115    -0.06400
H2179       H  0.48894007  0.06116708  0.22612536     0.06100
H2180       H  0.39959761  0.04370257  0.25720484     0.09500
Br2181     Br  0.48682301  0.98910741  0.19967648    -0.06100
Br2182     Br  0.53012897  0.97361170  0.29996871    -0.03000
Br2183     Br  0.46333358  0.12627393  0.21743395    -0.00200
Br2184     Br  0.42741977  0.97706308  0.26416075    -0.04500
C2185       C  0.36696869  0.13108201  0.32636784    -0.11900
C2186       C  0.38449086  0.10284503  0.33034977     0.03500
C2187       C  0.39346239  0.09615955  0.35137983    -0.12500
C2188       C  0.38483293  0.11693301  0.36858089     0.18400
C2189       C  0.36560032  0.14303088  0.36477330    -0.09500
C2190       C  0.35690499  0.14991164  0.34388192    -0.02500
H2191       H  0.40833381  0.07609214  0.35412660     0.04900
C2192       C  0.39882640  0.11573382  0.38956837     0.20400
H2193       H  0.34345157  0.17168279  0.34113897     0.10100
C2194       C  0.41979764  0.13925115  0.39290986    -0.15900
C2195       C  0.42958350  0.14580529  0.41353954     0.03100
C2196       C  0.41857438  0.12834730  0.43139080    -0.11200
C2197       C  0.39927369  0.10233478  0.42778483    -0.01200
C2198       C  0.38920854  0.09619150  0.40705367    -0.06400
H2199       H  0.42740873  0.15433371  0.37954956     0.06100
H2200       H  0.39038361  0.08891034  0.44127776     0.09500
Br2201     Br  0.35263568  0.17239828  0.38740255    -0.06100
Br2202     Br  0.39918445  0.07554607  0.30748884    -0.03000
Br2203     Br  0.45692616  0.18054246  0.41651939    -0.00200
Br2204     Br  0.36071349  0.06342690  0.40353848    -0.04500
C2205       C  0.68443448  0.39393079  0.32164861    -0.11900
C2206       C  0.66815482  0.41990618  0.33083612     0.03500
C2207       C  0.67063622  0.42742583  0.35273684    -0.12500
C2208       C  0.68939563  0.40968860  0.36545875     0.18400
C2209       C  0.70675625  0.38555137  0.35598129    -0.09500
C2210       C  0.70402325  0.37761753  0.33428745    -0.02500
H2211       H  0.65712475  0.44593606  0.36006897     0.04900
C2212       C  0.68846003  0.41317989  0.38890885     0.20400
H2213       H  0.71656723  0.35751855  0.32745029     0.10100
C2214       C  0.67194517  0.39052918  0.40045039    -0.15900
C2215       C  0.66998107  0.39307130  0.42272560     0.03100
C2216       C  0.68500779  0.41859510  0.43379110    -0.11200
C2217       C  0.70197733  0.44075987  0.42211496    -0.01200
C2218       C  0.70377512  0.43819451  0.39983165    -0.06400
H2219       H  0.66008875  0.37124415  0.39198682     0.06100
H2220       H  0.71345812  0.46071472  0.43032161     0.09500
Br2221     Br  0.73336489  0.36129635  0.37240003    -0.06100
Br2222     Br  0.64037811  0.44275672  0.31490422    -0.03000
Br2223     Br  0.64450844  0.36333005  0.43660280    -0.00200
Br2224     Br  0.72681597  0.46974122  0.38486764    -0.04500
C2225       C  0.48961990  0.56681786  0.25778388    -0.11900
C2226       C  0.50220484  0.56084430  0.23796766     0.03500
C2227       C  0.52484212  0.53951194  0.23708379    -0.12500
C2228       C  0.53508986  0.52384194  0.25572343     0.18400
C2229       C  0.52320940  0.53098917  0.27560350    -0.09500
C2230       C  0.50057955  0.55218642  0.27650587    -0.02500
H2231       H  0.53362093  0.53359500  0.22168421     0.04900
C2232       C  0.55579902  0.49657000  0.25394007     0.20400
H2233       H  0.49088773  0.55617242  0.29178091     0.10100
C2234       C  0.58270983  0.50570292  0.25439349    -0.15900
C2235       C  0.60256993  0.47985060  0.25360204     0.03100
C2236       C  0.59543243  0.44381924  0.25266715    -0.11200
C2237       C  0.56821494  0.43528903  0.25198991    -0.01200
C2238       C  0.54865796  0.46111396  0.25241043    -0.06400
H2239       H  0.58827129  0.53308923  0.25542100     0.06100
H2240       H  0.56182624  0.40824351  0.25089323     0.09500
Br2241     Br  0.53627992  0.51034467  0.30167248    -0.06100
Br2242     Br  0.48738080  0.57739159  0.21141425    -0.03000
Br2243     Br  0.63857222  0.49639182  0.25362557    -0.00200
Br2244     Br  0.51230675  0.44654821  0.25061647    -0.04500
C2245       C  0.74737325  0.32446975  0.25153811    -0.11900
C2246       C  0.76608540  0.32461185  0.26837761     0.03500
C2247       C  0.78922848  0.30445908  0.26682357    -0.12500
C2248       C  0.79402495  0.28393297  0.24861998     0.18400
C2249       C  0.77620853  0.28565282  0.23116507    -0.09500
C2250       C  0.75304030  0.30583164  0.23273178    -0.02500
H2251       H  0.80268418  0.30303162  0.28040882     0.04900
C2252       C  0.81473488  0.25645701  0.24976187     0.20400
H2253       H  0.73849580  0.30487250  0.21988056     0.10100
C2254       C  0.80836026  0.22468756  0.25978287    -0.15900
C2255       C  0.82677308  0.19733663  0.26095965     0.03100
C2256       C  0.85226369  0.20150598  0.25200735    -0.11200
C2257       C  0.85896688  0.23380942  0.24257535    -0.01200
C2258       C  0.84032679  0.26116356  0.24130693    -0.06400
H2259       H  0.78881484  0.22108834  0.26661440     0.06100
H2260       H  0.87840419  0.23736983  0.23556320     0.09500
Br2261     Br  0.78138389  0.25805163  0.20584917    -0.06100
Br2262     Br  0.75947419  0.34896828  0.29466847    -0.03000
Br2263     Br  0.81624606  0.15532063  0.27569282    -0.00200
Br2264     Br  0.85026334  0.30415691  0.22759238    -0.04500
C2265       C  0.65242896  0.23374707  0.22482779    -0.11900
C2266       C  0.67302175  0.21011745  0.23018336     0.03500
C2267       C  0.67044133  0.17479380  0.22492793    -0.12500
C2268       C  0.64802048  0.16262809  0.21380156     0.18400
C2269       C  0.62939165  0.18702311  0.20585872    -0.09500
C2270       C  0.63165124  0.22235771  0.21146129    -0.02500
H2271       H  0.68507561  0.15639878  0.23098472     0.04900
C2272       C  0.64177581  0.12488535  0.21523231     0.20400
H2273       H  0.61604073  0.24034332  0.20668771     0.10100
C2274       C  0.61892760  0.11515514  0.22647522    -0.15900
C2275       C  0.61509936  0.08075378  0.23332096     0.03100
C2276       C  0.63511373  0.05532393  0.22962955    -0.11200
C2277       C  0.65688315  0.06457104  0.21670230    -0.01200
C2278       C  0.66022097  0.09894401  0.20942641    -0.06400
H2279       H  0.60456587  0.13491162  0.23104708     0.06100
H2280       H  0.67207669  0.04546299  0.21296390     0.09500
Br2281     Br  0.59959393  0.17287079  0.18865976    -0.06100
Br2282     Br  0.70467128  0.22398540  0.24531587    -0.03000
Br2283     Br  0.58223391  0.07168815  0.24795082    -0.00200
Br2284     Br  0.69069051  0.10952233  0.19225798    -0.04500
C2285       C  0.45643458  0.22769437  0.27968050    -0.11900
C2286       C  0.47315670  0.24711447  0.26598698     0.03500
C2287       C  0.49858544  0.25621458  0.27275677    -0.12500
C2288       C  0.50791306  0.24671999  0.29311106     0.18400
C2289       C  0.49118365  0.22829518  0.30715329    -0.09500
C2290       C  0.46548408  0.21898634  0.30040714    -0.02500
H2291       H  0.51128877  0.27089025  0.26201736     0.04900
C2292       C  0.53548570  0.25636375  0.29849089     0.20400
H2293       H  0.45277729  0.20441407  0.31117207     0.10100
C2294       C  0.54074163  0.29104058  0.30471138    -0.15900
C2295       C  0.56604787  0.30545259  0.30196267     0.03100
C2296       C  0.58643648  0.28486388  0.29318284    -0.11200
C2297       C  0.58187744  0.24917784  0.28921492    -0.01200
C2298       C  0.55653560  0.23488491  0.29166125    -0.06400
H2299       H  0.52456541  0.30789755  0.30964112     0.06100
H2300       H  0.59730614  0.23334994  0.28198716     0.09500
Br2301     Br  0.50282664  0.21529417  0.33535566    -0.06100
Br2302     Br  0.46204722  0.26402591  0.23828619    -0.03000
Br2303     Br  0.57102497  0.35449767  0.30743603    -0.00200
Br2304     Br  0.55060954  0.18765831  0.28216082    -0.04500
C2305       C  0.59635929  0.38933949  0.93265781    -0.11900
C2306       C  0.61394026  0.41211650  0.92212267     0.03500
C2307       C  0.61185626  0.41674037  0.89991821    -0.12500
C2308       C  0.59241455  0.39876697  0.88809717     0.18400
C2309       C  0.57438067  0.37681883  0.89869540    -0.09500
C2310       C  0.57663053  0.37200475  0.92080803    -0.02500
H2311       H  0.62585791  0.43360789  0.89175915     0.04900
C2312       C  0.59181232  0.40228165  0.86462887     0.20400
H2313       H  0.56352961  0.35369929  0.92865065     0.10100
C2314       C  0.60798740  0.38047813  0.85213193    -0.15900
C2315       C  0.60916345  0.38482029  0.82986195     0.03100
C2316       C  0.59392567  0.41133404  0.81997316    -0.11200
C2317       C  0.57715768  0.43229279  0.83252662    -0.01200
C2318       C  0.57595303  0.42788020  0.85468429    -0.06400
H2319       H  0.62030296  0.36078049  0.85981296     0.06100
H2320       H  0.56570010  0.45312887  0.82514189     0.09500
Br2321     Br  0.54715502  0.35193714  0.88342606    -0.06100
Br2322     Br  0.64248639  0.43468528  0.93706096    -0.03000
Br2323     Br  0.63386202  0.35660781  0.81409864    -0.00200
Br2324     Br  0.55340297  0.45843945  0.87087045    -0.04500
C2325       C  0.62126707  0.39484610  0.07319130    -0.11900
C2326       C  0.61136576  0.36966847  0.08756569     0.03500
C2327       C  0.61787012  0.37180554  0.10933415    -0.12500
C2328       C  0.63439921  0.39868856  0.11691779     0.18400
C2329       C  0.64310500  0.42493119  0.10275934    -0.09500
C2330       C  0.63636940  0.42297101  0.08101861    -0.02500
H2331       H  0.61080600  0.35179799  0.12025155     0.04900
C2332       C  0.64277707  0.39828901  0.13956662     0.20400
H2333       H  0.64463268  0.44193354  0.06996121     0.10100
C2334       C  0.66381380  0.37640845  0.14603642    -0.15900
C2335       C  0.67006113  0.37230708  0.16781910     0.03100
C2336       C  0.65527907  0.39058509  0.18326059    -0.11200
C2337       C  0.63507858  0.41361210  0.17663007    -0.01200
C2338       C  0.62867072  0.41742199  0.15497694    -0.06400
H2339       H  0.67456196  0.36133818  0.13419248     0.06100
H2340       H  0.62310997  0.42700192  0.18848037     0.09500
Br2341     Br  0.66593887  0.46211605  0.11216943    -0.06100
Br2342     Br  0.59028960  0.33089630  0.07776815    -0.03000
Br2343     Br  0.69666944  0.33871964  0.17593620    -0.00200
Br2344     Br  0.59899186  0.44647546  0.14728966    -0.04500
C2345       C  0.42932199  0.20916966  0.01682775    -0.11900
C2346       C  0.45411035  0.20813128  0.02779755     0.03500
C2347       C  0.47099139  0.23718545  0.02727616    -0.12500
C2348       C  0.46385770  0.26795698  0.01640062     0.18400
C2349       C  0.43873793  0.26984240  0.00642574    -0.09500
C2350       C  0.42176253  0.24073468  0.00673249    -0.02500
H2351       H  0.49037628  0.23526198  0.03480853     0.04900
C2352       C  0.48457719  0.29504689  0.01297182     0.20400
H2353       H  0.40286400  0.24258894  0.99844889     0.10100
C2354       C  0.49332341  0.30079907  0.99199527    -0.15900
C2355       C  0.51637669  0.31985184  0.98801398     0.03100
C2356       C  0.53157364  0.33329314  0.00519913    -0.11200
C2357       C  0.52177045  0.33005004  0.02614248    -0.01200
C2358       C  0.49842499  0.31101602  0.03011928    -0.06400
H2359       H  0.48298802  0.28869762  0.97864650     0.06100
H2360       H  0.53314963  0.34026210  0.03952886     0.09500
Br2361     Br  0.42686542  0.31148983  0.99196957    -0.06100
Br2362     Br  0.46691224  0.16846718  0.04394589    -0.03000
Br2363     Br  0.52667821  0.32539471  0.95867679    -0.00200
Br2364     Br  0.48672902  0.30635688  0.05919555    -0.04500
C2365       C  0.65634550  0.06103796  0.02010406    -0.11900
C2366       C  0.66781643  0.08796604  0.00755572     0.03500
C2367       C  0.66562430  0.12272474  0.01405790    -0.12500
C2368       C  0.65269161  0.13172196  0.03309238     0.18400
C2369       C  0.64204449  0.10501327  0.04605009    -0.09500
C2370       C  0.64380223  0.06998649  0.03944585    -0.02500
H2371       H  0.67326003  0.14316152  0.00368820     0.04900
C2372       C  0.64798716  0.16937295  0.03718376     0.20400
H2373       H  0.63513731  0.04971782  0.04937681     0.10100
C2374       C  0.62184063  0.18203381  0.03639873    -0.15900
C2375       C  0.61669182  0.21777855  0.03353838     0.03100
C2376       C  0.63805803  0.24136880  0.03099472    -0.11200
C2377       C  0.66409267  0.22906363  0.03431874    -0.01200
C2378       C  0.66917170  0.19342498  0.03730389    -0.06400
H2379       H  0.60536035  0.16380553  0.03646265     0.06100
H2380       H  0.68083557  0.24669490  0.03284896     0.09500
Br2381     Br  0.62512403  0.11511220  0.07281658    -0.06100
Br2382     Br  0.68482952  0.08038266  0.98038802    -0.03000
Br2383     Br  0.58016808  0.23230424  0.03257800    -0.00200
Br2384     Br  0.70553558  0.17859302  0.03958190    -0.04500
C2385       C  0.67699502  0.46208526  0.00273874    -0.11900
C2386       C  0.69700863  0.46911082  0.01817496     0.03500
C2387       C  0.71522900  0.49616342  0.01476876    -0.12500
C2388       C  0.71400292  0.51721314  0.99634398     0.18400
C2389       C  0.69345725  0.51125058  0.98131736    -0.09500
C2390       C  0.67503474  0.48419519  0.98473201    -0.02500
H2391       H  0.73092929  0.50029216  0.02642351     0.04900
C2392       C  0.73598017  0.54252173  0.99245883     0.20400
H2393       H  0.65962068  0.47982839  0.97293334     0.10100
C2394       C  0.75282317  0.53687681  0.97498749    -0.15900
C2395       C  0.77665456  0.55532996  0.97299265     0.03100
C2396       C  0.78451886  0.57954120  0.98898737    -0.11200
C2397       C  0.76671144  0.58727702  0.00557120    -0.01200
C2398       C  0.74258986  0.56902718  0.00736951    -0.06400
H2399       H  0.74801565  0.51682854  0.96330797     0.06100
H2400       H  0.77218560  0.60607272  0.01782366     0.09500
Br2401     Br  0.68975658  0.53917450  0.95587151    -0.06100
Br2402     Br  0.70031044  0.44374150  0.04472258    -0.03000
Br2403     Br  0.79779340  0.54597595  0.94805922    -0.00200
Br2404     Br  0.71958129  0.58047555  0.03075092    -0.04500
C2405       C  0.83582965  0.15075046  0.68871240    -0.11900
C2406       C  0.82581198  0.11955197  0.67958181     0.03500
C2407       C  0.82350779  0.11665841  0.65717329    -0.12500
C2408       C  0.83067491  0.14464775  0.64372948     0.18400
C2409       C  0.83733560  0.17709399  0.65300840    -0.09500
C2410       C  0.83999557  0.17985966  0.67525552    -0.02500
H2411       H  0.81807894  0.09166037  0.65018799     0.04900
C2412       C  0.83626743  0.13782218  0.62076656     0.20400
H2413       H  0.84709825  0.20432816  0.68198064     0.10100
C2414       C  0.81562165  0.13351439  0.60576776    -0.15900
C2415       C  0.82114481  0.12646649  0.58406198     0.03100
C2416       C  0.84777067  0.12334617  0.57718490    -0.11200
C2417       C  0.86818483  0.12776703  0.59241909    -0.01200
C2418       C  0.86271087  0.13472836  0.61386836    -0.06400
H2419       H  0.79520064  0.13546512  0.61097658     0.06100
H2420       H  0.88877849  0.12569687  0.58765895     0.09500
Br2421     Br  0.84568690  0.21730540  0.63576932    -0.06100
Br2422     Br  0.81816569  0.07884288  0.69652508    -0.03000
Br2423     Br  0.79162730  0.11942357  0.56505093    -0.00200
Br2424     Br  0.89230852  0.13856625  0.63329538    -0.04500
C2425       C  0.78276231  0.21646851  0.76955562    -0.11900
C2426       C  0.76986620  0.22122508  0.74962172     0.03500
C2427       C  0.74828006  0.24438065  0.74790381    -0.12500
C2428       C  0.73926149  0.26309781  0.76581301     0.18400
C2429       C  0.75127828  0.25703000  0.78590765    -0.09500
C2430       C  0.77297052  0.23414898  0.78761589    -0.02500
H2431       H  0.73930922  0.24907703  0.73233640     0.04900
C2432       C  0.71912871  0.29118397  0.76287254     0.20400
H2433       H  0.78284192  0.23107638  0.80298301     0.10100
C2434       C  0.69210144  0.28274204  0.76140026    -0.15900
C2435       C  0.67278446  0.30893443  0.75823923     0.03100
C2436       C  0.68051437  0.34457414  0.75623066    -0.11200
C2437       C  0.70775457  0.35261334  0.75792370    -0.01200
C2438       C  0.72683793  0.32650117  0.76119777    -0.06400
H2439       H  0.68601214  0.25557997  0.76264954     0.06100
H2440       H  0.71444897  0.37951606  0.75663653     0.09500
Br2441     Br  0.73936492  0.28067388  0.81121808    -0.06100
Br2442     Br  0.78288352  0.20005371  0.72383304    -0.03000
Br2443     Br  0.63660946  0.29353548  0.75608837    -0.00200
Br2444     Br  0.76335508  0.34045337  0.76286615    -0.04500
C2445       C  0.88116739  0.29190509  0.73451070    -0.11900
C2446       C  0.86253498  0.31673125  0.74183829     0.03500
C2447       C  0.86648098  0.35223697  0.73772297    -0.12500
C2448       C  0.88861439  0.36366592  0.72616014     0.18400
C2449       C  0.90619857  0.33882274  0.71747756    -0.09500
C2450       C  0.90230373  0.30310819  0.72159026    -0.02500
H2451       H  0.85280788  0.37120618  0.74441643     0.04900
C2452       C  0.89449914  0.40151827  0.72608556     0.20400
H2453       H  0.91668802  0.28432163  0.71574321     0.10100
C2454       C  0.91606748  0.41351004  0.73832561    -0.15900
C2455       C  0.91898854  0.44911906  0.74295307     0.03100
C2456       C  0.89999479  0.47336495  0.73525494    -0.11200
C2457       C  0.87962397  0.46156815  0.72158572    -0.01200
C2458       C  0.87664390  0.42590123  0.71712682    -0.06400
H2459       H  0.92989076  0.39486433  0.74529633     0.06100
H2460       H  0.86493992  0.47982720  0.71544404     0.09500
Br2461     Br  0.93615663  0.35267289  0.70062491    -0.06100
Br2462     Br  0.83153596  0.30390147  0.75785462    -0.03000
Br2463     Br  0.94902557  0.46279836  0.76011419    -0.00200
Br2464     Br  0.84709940  0.41142871  0.69973765    -0.04500
C2465       C  0.91367392  0.06645219  0.74341562    -0.11900
C2466       C  0.91141121  0.03678103  0.75693709     0.03500
C2467       C  0.93077641  0.01026271  0.75619436    -0.12500
C2468       C  0.95291034  0.01311846  0.74265493     0.18400
C2469       C  0.95415479  0.04146467  0.72820044    -0.09500
C2470       C  0.93454295  0.06730265  0.72849000    -0.02500
H2471       H  0.92954799  0.98847257  0.76730901     0.04900
C2472       C  0.97629351  0.98983729  0.74588435     0.20400
H2473       H  0.93653196  0.08933649  0.71763299     0.10100
C2474       C  0.98617101  0.96974103  0.72878444    -0.15900
C2475       C  0.01136177  0.95395979  0.72997476     0.03100
C2476       C  0.02675013  0.95724690  0.74888707    -0.11200
C2477       C  0.01563742  0.97472673  0.76655385    -0.01200
C2478       C  0.99100074  0.99130821  0.76513186    -0.06400
H2479       H  0.97503447  0.96841171  0.71390101     0.06100
H2480       H  0.02694946  0.97745507  0.78128401     0.09500
Br2481     Br  0.98375675  0.04883133  0.70941025    -0.06100
Br2482     Br  0.88443286  0.03243058  0.77840077    -0.03000
Br2483     Br  0.02473731  0.93246647  0.70438992    -0.00200
Br2484     Br  0.98020638  0.01924010  0.78919814    -0.04500
C2485       C  0.08122616  0.28257580  0.78886194    -0.11900
C2486       C  0.08032027  0.24748248  0.79600522     0.03500
C2487       C  0.05578494  0.23219542  0.80079858    -0.12500
C2488       C  0.03208941  0.25101015  0.79774120     0.18400
C2489       C  0.03331982  0.28706482  0.79284720    -0.09500
C2490       C  0.05782234  0.30260334  0.78890066    -0.02500
H2491       H  0.05497573  0.20453160  0.80473491     0.04900
C2492       C  0.00670114  0.23188604  0.79564309     0.20400
H2493       H  0.05825822  0.32966730  0.78356319     0.10100
C2494       C  0.98538842  0.24051535  0.80897911    -0.15900
C2495       C  0.95958810  0.22935181  0.80412832     0.03100
C2496       C  0.95499578  0.20799068  0.78585923    -0.11200
C2497       C  0.97695895  0.19666575  0.77387337    -0.01200
C2498       C  0.00246788  0.20881345  0.77833493    -0.06400
H2499       H  0.98856627  0.25817988  0.82234320     0.06100
H2500       H  0.97415161  0.17999662  0.75999395     0.09500
Br2501     Br  0.00221075  0.31513254  0.78766091    -0.06100
Br2502     Br  0.11087677  0.21741649  0.79579538    -0.03000
Br2503     Br  0.93187683  0.24790895  0.82192679    -0.00200
Br2504     Br  0.02999622  0.19640955  0.75847662    -0.04500
C2505       C  0.93888437  0.16480615  0.07680951    -0.11900
C2506       C  0.94376997  0.13177111  0.08631186     0.03500
C2507       C  0.94655269  0.12908008  0.10866403    -0.12500
C2508       C  0.94448654  0.15883288  0.12178166     0.18400
C2509       C  0.94215862  0.19207771  0.11217868    -0.09500
C2510       C  0.93946676  0.19485231  0.08990937    -0.02500
H2511       H  0.94818102  0.10335744  0.11595576     0.04900
C2512       C  0.93935968  0.15408558  0.14497403     0.20400
H2513       H  0.93590835  0.22048624  0.08293596     0.10100
C2514       C  0.96026270  0.14837436  0.15954188    -0.15900
C2515       C  0.95515869  0.14217221  0.18139389     0.03100
C2516       C  0.92868036  0.14103383  0.18880884    -0.11200
C2517       C  0.90799703  0.14741487  0.17407270    -0.01200
C2518       C  0.91309523  0.15395214  0.15248739    -0.06400
H2519       H  0.98054271  0.14837914  0.15385910     0.06100
H2520       H  0.88753716  0.14714519  0.17934716     0.09500
Br2521     Br  0.93962863  0.23397255  0.12906732    -0.06100
Br2522     Br  0.94286967  0.08900337  0.07016245    -0.03000
Br2523     Br  0.98495509  0.13353363  0.19986362    -0.00200
Br2524     Br  0.88330103  0.16157841  0.13369514    -0.04500
C2525       C  0.69665519  0.29850440  0.96673297    -0.11900
C2526       C  0.69920441  0.26154270  0.96615548     0.03500
C2527       C  0.72412225  0.24658526  0.96276846    -0.12500
C2528       C  0.74653461  0.26784449  0.96039222     0.18400
C2529       C  0.74346097  0.30429646  0.95818638    -0.09500
C2530       C  0.71855654  0.31940544  0.96131951    -0.02500
H2531       H  0.72655040  0.21850122  0.96465756     0.04900
C2532       C  0.77233289  0.25348405  0.96701866     0.20400
H2533       H  0.71682503  0.34773457  0.96143868     0.10100
C2534       C  0.79158577  0.24445964  0.95187457    -0.15900
C2535       C  0.81687187  0.23336819  0.95852367     0.03100
C2536       C  0.82304502  0.23192077  0.98068522    -0.11200
C2537       C  0.80314388  0.23975266  0.99562684    -0.01200
C2538       C  0.77806768  0.25036718  0.98901518    -0.06400
H2539       H  0.78698656  0.24630899  0.93492657     0.06100
H2540       H  0.80724699  0.23870425  0.01268406     0.09500
Br2541     Br  0.77339462  0.33469284  0.95436418    -0.06100
Br2542     Br  0.67115477  0.22993015  0.97400033    -0.03000
Br2543     Br  0.84135676  0.21916075  0.93667736    -0.00200
Br2544     Br  0.75266200  0.26187775  0.01083438    -0.04500
C2545       C  0.85921023  0.12820901  0.83015669    -0.11900
C2546       C  0.84671961  0.14572253  0.84729259     0.03500
C2547       C  0.85623138  0.14170781  0.86828168    -0.12500
C2548       C  0.87836570  0.12052847  0.87272012     0.18400
C2549       C  0.88943076  0.10054699  0.85594204    -0.09500
C2550       C  0.87981969  0.10447263  0.83482996    -0.02500
H2551       H  0.84728771  0.15688555  0.88102849     0.04900
C2552       C  0.89074089  0.12285768  0.89444154     0.20400
H2553       H  0.88989761  0.09115813  0.82186941     0.10100
C2554       C  0.87695257  0.11003856  0.91234556    -0.15900
C2555       C  0.88542558  0.11785774  0.93331043     0.03100
C2556       C  0.90804602  0.13895148  0.93667866    -0.11200
C2557       C  0.92236358  0.15066706  0.91879470    -0.01200
C2558       C  0.91397756  0.14280130  0.89786562    -0.06400
H2559       H  0.85874448  0.09542234  0.90999315     0.06100
H2560       H  0.93935400  0.16767558  0.92110415     0.09500
Br2561     Br  0.91862080  0.06926674  0.86097917    -0.06100
Br2562     Br  0.81786307  0.17779038  0.84248752    -0.03000
Br2563     Br  0.86359412  0.10293988  0.95673362    -0.00200
Br2564     Br  0.93327287  0.16335610  0.87454556    -0.04500
C2565       C  0.75090739  0.96544430  0.00612734    -0.11900
C2566       C  0.76932189  0.97589361  0.99035123     0.03500
C2567       C  0.79123176  0.99650459  0.99600956    -0.12500
C2568       C  0.79525702  0.00744923  0.01723756     0.18400
C2569       C  0.77764158  0.99564828  0.03320424    -0.09500
C2570       C  0.75587621  0.97449900  0.02761611    -0.02500
H2571       H  0.80453275  0.00547312  0.98355811     0.04900
C2572       C  0.81579464  0.03458065  0.02157207     0.20400
H2573       H  0.74184602  0.96706981  0.03991707     0.10100
C2574       C  0.80751320  0.06849997  0.02693829    -0.15900
C2575       C  0.82548076  0.09645410  0.02794179     0.03100
C2576       C  0.85278131  0.09084021  0.02329021    -0.11200
C2577       C  0.86110970  0.05633236  0.01878278    -0.01200
C2578       C  0.84296038  0.02845708  0.01794181    -0.06400
H2579       H  0.78660594  0.07357177  0.02953827     0.06100
H2580       H  0.88181325  0.05096519  0.01553471     0.09500
Br2581     Br  0.78188753  0.00896309  0.06266624    -0.06100
Br2582     Br  0.76525481  0.96358107  0.96067468    -0.03000
Br2583     Br  0.81018262  0.14147683  0.03439925    -0.00200
Br2584     Br  0.85612159  0.98236803  0.01181045    -0.04500
C2585       C  0.99680155  0.21539176  0.99230367    -0.11900
C2586       C  0.01528104  0.20696701  0.00872474     0.03500
C2587       C  0.03959251  0.22490094  0.00993538    -0.12500
C2588       C  0.04602149  0.25107256  0.99500255     0.18400
C2589       C  0.02851505  0.25774534  0.97785793    -0.09500
C2590       C  0.00427987  0.24000969  0.97660157    -0.02500
H2591       H  0.05287587  0.21986445  0.02330472     0.04900
C2592       C  0.06843034  0.27524551  0.99937921     0.20400
H2593       H  0.99064716  0.24677163  0.96375481     0.10100
C2594       C  0.09228987  0.27248914  0.98796699    -0.15900
C2595       C  0.11217545  0.29823835  0.98989402     0.03100
C2596       C  0.10821658  0.32752495  0.00352021    -0.11200
C2597       C  0.08468639  0.32881825  0.01567154    -0.01200
C2598       C  0.06494769  0.30342401  0.01355218    -0.06400
H2599       H  0.09502340  0.25090603  0.97691884     0.06100
H2600       H  0.08099906  0.35050625  0.02645143     0.09500
Br2601     Br  0.03576894  0.29337562  0.95692834    -0.06100
Br2602     Br  0.00763769  0.17437168  0.03136066    -0.03000
Br2603     Br  0.14309766  0.29260180  0.97237446    -0.00200
Br2604     Br  0.03250191  0.30997331  0.02911204    -0.04500
C2605       C  0.90334142  0.31196896  0.02908695    -0.11900
C2606       C  0.92124020  0.33705872  0.02074490     0.03500
C2607       C  0.91750620  0.37268832  0.02519785    -0.12500
C2608       C  0.89639523  0.38395499  0.03803850     0.18400
C2609       C  0.88007200  0.35893650  0.04790627    -0.09500
C2610       C  0.88366718  0.32330577  0.04349065    -0.02500
H2611       H  0.93036257  0.39186912  0.01773479     0.04900
C2612       C  0.88931438  0.42155147  0.03792860     0.20400
H2613       H  0.86993727  0.30465811  0.05039880     0.10100
C2614       C  0.86742672  0.43216607  0.02556053    -0.15900
C2615       C  0.86282848  0.46760238  0.02127694     0.03100
C2616       C  0.88057273  0.49313623  0.02926960    -0.11200
C2617       C  0.90103076  0.48265067  0.04330897    -0.01200
C2618       C  0.90553528  0.44707303  0.04760064    -0.06400
H2619       H  0.85456904  0.41264944  0.01835029     0.06100
H2620       H  0.91467860  0.50190021  0.04978528     0.09500
Br2621     Br  0.85190786  0.37256506  0.06672743    -0.06100
Br2622     Br  0.95098415  0.32481450  0.00306421    -0.03000
Br2623     Br  0.83230677  0.47937807  0.00407841    -0.00200
Br2624     Br  0.93455892  0.43432254  0.06601681    -0.04500
loop_ 
_geom_bond_atom_site_label_1 
_geom_bond_atom_site_label_2 
_geom_bond_distance 
_geom_bond_site_symmetry_2 
_ccdc_geom_bond_type 
Fe1          O17   2.061   1_556  S
Fe1           O7   2.057       .  S
Fe1          O14   2.067       .  S
Fe1           O6   2.051       .  S
Fe1          O12   1.981   1_556  S
Fe2           O5   2.040       .  S
Fe2           O9   2.063       .  S
Fe2          O13   2.044       .  S
Fe2          O18   2.060       .  S
Fe2          O12   1.971       .  S
Fe3          O21   2.101       .  S
Fe3           O8   2.082       .  S
Fe3          O15   2.090       .  S
Fe3           O4   2.097   1_554  S
Fe3          O12   1.984       .  S
O4           C11   1.273       .  A
O5           C19   1.266       .  A
O6           C11   1.264       .  A
O7           C10   1.270       .  A
O8           C20   1.272       .  A
O9           C22   1.267       .  A
C10          O15   1.274   1_556  A
C10        C2585   1.491       .  S
C11        C2556   1.483       .  S
O13          C16   1.268   1_554  A
O14          C16   1.269       .  A
C16        C2536   1.477       .  S
O17          C22   1.266       .  A
O18          C20   1.265       .  A
C19          O21   1.275       .  A
C19        C2505   1.485       .  S
C20        C2576   1.498       .  S
C22        C2605   1.487       .  S
Fe23         O39   2.043       .  S
Fe23         O29   2.049       .  S
Fe23         O36   2.056       .  S
Fe23         O28   2.032       .  S
Fe23         O34   1.974       .  S
Fe24         O27   2.046       .  S
Fe24         O31   2.060       .  S
Fe24         O35   2.063       .  S
Fe24         O40   2.050       .  S
Fe24         O34   1.972       .  S
Fe25         O43   2.097       .  S
Fe25         O30   2.089       .  S
Fe25         O37   2.098       .  S
Fe25         O26   2.108       .  S
Fe25         O34   1.987       .  S
O26          C33   1.274       .  A
O27          C41   1.266       .  A
O28          C33   1.260       .  A
O29          C32   1.267       .  A
O30          C42   1.273       .  A
O31          C44   1.265       .  A
C32          O37   1.276       .  A
C32        C2425   1.480       .  S
C33        C2545   1.482       .  S
O35          C38   1.271       .  A
O36          C38   1.266       .  A
C38        C2496   1.486       .  S
O39          C44   1.263       .  A
O40          C42   1.269       .  A
C41          O43   1.273       .  A
C41        C2405   1.486       .  S
C42        C2465   1.491       .  S
C44        C2445   1.472       .  S
Fe45         O61   2.053   1_556  S
Fe45         O51   2.049       .  S
Fe45         O58   2.071       .  S
Fe45         O50   2.037       .  S
Fe45         O56   1.957   1_556  S
Fe46         O49   2.033       .  S
Fe46         O53   2.073       .  S
Fe46         O57   2.047   1_554  S
Fe46         O62   2.062       .  S
Fe46         O56   1.949       .  S
Fe47         O65   2.098       .  S
Fe47         O52   2.084   1_554  S
Fe47         O59   2.089       .  S
Fe47         O48   2.099   1_554  S
Fe47         O56   1.965       .  S
O48          C55   1.278       .  A
O49          C63   1.266       .  A
O50          C55   1.267       .  A
O51          C54   1.265   1_556  A
O52          C64   1.271   1_556  A
O53          C66   1.270       .  A
C54          O59   1.271       .  A
C54        C2356   1.479       .  S
C55        C2305   1.466       .  S
O57          C60   1.267       .  A
O58          C60   1.268       .  A
C60        C2525   1.472       .  S
O61          C66   1.266       .  A
O62          C64   1.266       .  A
C63          O65   1.276       .  A
C63        C2325   1.462       .  S
C64        C2385   1.490       .  S
C66        C2376   1.480       .  S
Fe67         O83   2.061       .  S
Fe67         O73   2.044       .  S
Fe67         O80   2.070       .  S
Fe67         O72   2.049       .  S
Fe67         O78   1.964       .  S
Fe68         O71   2.037       .  S
Fe68         O75   2.059       .  S
Fe68         O79   2.053       .  S
Fe68         O84   2.048       .  S
Fe68         O78   1.956       .  S
Fe69         O87   2.078       .  S
Fe69         O74   2.096       .  S
Fe69         O81   2.095       .  S
Fe69         O70   2.076       .  S
Fe69         O78   1.972       .  S
O70          C77   1.271       .  A
O71          C85   1.261       .  A
O72          C77   1.267       .  A
O73          C76   1.265       .  A
O74          C86   1.276       .  A
O75          C88   1.270       .  A
C76          O81   1.273       .  A
C76        C2245   1.470       .  S
C77        C2205   1.471       .  S
O79          C82   1.263       .  A
O80          C82   1.265       .  A
C82        C2296   1.466       .  S
O83          C88   1.270       .  A
O84          C86   1.272       .  A
C85          O87   1.268       .  A
C85        C2336   1.464       .  S
C86        C2236   1.495       .  S
C88        C2265   1.473       .  S
Fe89        O105   2.058       .  S
Fe89         O95   2.051       .  S
Fe89        O102   2.071       .  S
Fe89         O94   2.042       .  S
Fe89        O100   1.980       .  S
Fe90         O93   2.045       .  S
Fe90         O97   2.056       .  S
Fe90        O101   2.052       .  S
Fe90        O106   2.051       .  S
Fe90        O100   1.969       .  S
Fe91        O109   2.097       .  S
Fe91         O96   2.096       .  S
Fe91        O103   2.103       .  S
Fe91         O92   2.098       .  S
Fe91        O100   1.990       .  S
O92          C99   1.272       .  A
O93         C107   1.263       .  A
O94          C99   1.264       .  A
O95          C98   1.268       .  A
O96         C108   1.277       .  A
O97         C110   1.267       .  A
C98         O103   1.278       .  A
C98        C2125   1.489       .  S
C99        C2185   1.483       .  S
O101        C104   1.266       .  A
O102        C104   1.268       .  A
C104       C2285   1.476       .  S
O105        C110   1.267       .  A
O106        C108   1.266       .  A
C107        O109   1.273       .  A
C107       C2116   1.482       .  S
C108       C2176   1.500       .  S
C110       C2156   1.476       .  S
Fe111       O127   2.054       .  S
Fe111       O117   2.040       .  S
Fe111       O124   2.051       .  S
Fe111       O116   2.051       .  S
Fe111       O122   1.968       .  S
Fe112       O115   2.060       .  S
Fe112       O119   2.071       .  S
Fe112       O123   2.060       .  S
Fe112       O128   2.058       .  S
Fe112       O122   1.972       .  S
Fe113       O131   2.088       .  S
Fe113       O118   2.099       .  S
Fe113       O125   2.108       .  S
Fe113       O114   2.090       .  S
Fe113       O122   1.980       .  S
O114        C121   1.271       .  A
O115        C129   1.269       .  A
O116        C121   1.264       .  A
O117        C120   1.265       .  A
O118        C130   1.274       .  A
O119        C132   1.268       .  A
C120        O125   1.276       .  A
C120       C2045   1.477       .  S
C121       C2196   1.483       .  S
O123        C126   1.271       .  A
O124        C126   1.265       .  A
C126       C2085   1.484       .  S
O127        C132   1.265       .  A
O128        C130   1.268       .  A
C129        O131   1.273       .  A
C129       C2005   1.478       .  S
C130       C2025   1.506       .  S
C132       C2076   1.477       .  S
Fe133       O149   2.060       .  S
Fe133       O139   2.057       .  S
Fe133       O146   2.074       .  S
Fe133       O138   2.050       .  S
Fe133       O144   1.970       .  S
Fe134       O137   2.034       .  S
Fe134       O141   2.058       .  S
Fe134       O145   2.039       .  S
Fe134       O150   2.043       .  S
Fe134       O144   1.960       .  S
Fe135       O153   2.098       .  S
Fe135       O140   2.103       .  S
Fe135       O147   2.103       .  S
Fe135       O136   2.084       .  S
Fe135       O144   1.977       .  S
O136        C143   1.275       .  A
O137        C151   1.265       .  A
O138        C143   1.267       .  A
O139        C142   1.269       .  A
O140        C152   1.275       .  A
O141        C154   1.268       .  A
C142        O147   1.275       .  A
C142       C1945   1.494       .  S
C143       C1905   1.474       .  S
O145        C148   1.264       .  A
O146        C148   1.268       .  A
C148       C2485   1.474       .  S
O149        C154   1.269       .  A
O150        C152   1.266       .  A
C151        O153   1.276       .  A
C151       C1985   1.483       .  S
C152       C1925   1.489       .  S
C154       C1965   1.475       .  S
Fe155       O171   2.042       .  S
Fe155       O161   2.048       .  S
Fe155       O168   2.064       .  S
Fe155       O160   2.025       .  S
Fe155       O166   1.956       .  S
Fe156       O159   2.035       .  S
Fe156       O163   2.082       .  S
Fe156       O167   2.046       .  S
Fe156       O172   2.066       .  S
Fe156       O166   1.951       .  S
Fe157       O175   2.101       .  S
Fe157       O162   2.089       .  S
Fe157       O169   2.095       .  S
Fe157       O158   2.104       .  S
Fe157       O166   1.970       .  S
O158        C165   1.277       .  A
O159        C173   1.264       .  A
O160        C165   1.265       .  A
O161        C164   1.266       .  A
O162        C174   1.275       .  A
O163        C176   1.272       .  A
C164        O169   1.274       .  A
C164       C1845   1.490       .  S
C165       C1825   1.479       .  S
O167        C170   1.266       .  A
O168        C170   1.265       .  A
C170       C2096   1.479       .  S
O171        C176   1.264       .  A
O172        C174   1.269       .  A
C173        O175   1.276       .  A
C173       C1996   1.470       .  S
C174       C1885   1.494       .  S
C176       C1876   1.486       .  S
Fe177       O193   2.041       .  S
Fe177       O183   2.058       .  S
Fe177       O190   2.078       .  S
Fe177       O182   2.025       .  S
Fe177       O188   1.948       .  S
Fe178       O181   2.032       .  S
Fe178       O185   2.090       .  S
Fe178       O189   2.040       .  S
Fe178       O194   2.081       .  S
Fe178       O188   1.934       .  S
Fe179       O197   2.105       .  S
Fe179       O184   2.081       .  S
Fe179       O191   2.092       .  S
Fe179       O180   2.110       .  S
Fe179       O188   1.954       .  S
O180        C187   1.279       .  A
O181        C195   1.263       .  A
O182        C187   1.266       .  A
O183        C186   1.267       .  A
O184        C196   1.275       .  A
O185        C198   1.276       .  A
C186        O191   1.274       .  A
C186       C1736   1.475       .  S
C187       C1705   1.474       .  S
O189        C192   1.263       .  A
O190        C192   1.267       .  A
C192       C1776   1.466       .  S
O193        C198   1.264       .  A
O194        C196   1.274       .  A
C195        O197   1.275       .  A
C195       C1785   1.467       .  S
C196       C1805   1.491       .  S
C198       C1745   1.488       .  S
Fe199       O215   2.047       .  S
Fe199       O205   2.064       .  S
Fe199       O212   2.076       .  S
Fe199       O204   2.035       .  S
Fe199       O210   1.953       .  S
Fe200       O203   2.034       .  S
Fe200       O207   2.081       .  S
Fe200       O211   2.046       .  S
Fe200       O216   2.085       .  S
Fe200       O210   1.944       .  S
Fe201       O219   2.097       .  S
Fe201       O206   2.088       .  S
Fe201       O213   2.097       .  S
Fe201       O202   2.093       .  S
Fe201       O210   1.963       .  S
O202        C209   1.274       .  A
O203        C217   1.262       .  A
O204        C209   1.264       .  A
O205        C208   1.270       .  A
O206        C218   1.276       .  A
O207        C220   1.271       .  A
C208        O213   1.277       .  A
C208       C1665   1.485       .  S
C209       C1616   1.466       .  S
O211        C214   1.268       .  A
O212        C214   1.269       .  A
C214       C1645   1.482       .  S
O215        C220   1.264       .  A
O216        C218   1.273       .  A
C217        O219   1.273       .  A
C217       C1796   1.468       .  S
C218       C1625   1.501       .  S
C220       C1696   1.490       .  S
Fe221       O237   2.055       .  S
Fe221       O227   2.057       .  S
Fe221       O234   2.066       .  S
Fe221       O226   2.045       .  S
Fe221       O232   1.984       .  S
Fe222       O225   2.041       .  S
Fe222       O229   2.064       .  S
Fe222       O233   2.046   1_554  S
Fe222       O238   2.057       .  S
Fe222       O232   1.972   1_554  S
Fe223       O241   2.117   1_556  S
Fe223       O228   2.086       .  S
Fe223       O235   2.104       .  S
Fe223       O224   2.119       .  S
Fe223       O232   1.984       .  S
O224        C231   1.277       .  A
O225        C239   1.264       .  A
O226        C231   1.263       .  A
O227        C230   1.268       .  A
O228        C240   1.273   1_556  A
O229        C242   1.268       .  A
C230        O235   1.277       .  A
C230       C1576   1.491       .  S
C231       C1545   1.491       .  S
O233        C236   1.263       .  A
O234        C236   1.268       .  A
C236       C1536   1.486       .  S
O237        C242   1.266   1_556  A
O238        C240   1.269       .  A
C239        O241   1.278       .  A
C239       C1485   1.488       .  S
C240       C1516   1.496       .  S
C242       C1596   1.477       .  S
Fe243       O259   2.058       .  S
Fe243       O249   2.050       .  S
Fe243       O256   2.060       .  S
Fe243       O248   2.047       .  S
Fe243       O254   1.980       .  S
Fe244       O247   2.054       .  S
Fe244       O251   2.071       .  S
Fe244       O255   2.054       .  S
Fe244       O260   2.062       .  S
Fe244       O254   1.974       .  S
Fe245       O263   2.092       .  S
Fe245       O250   2.099       .  S
Fe245       O257   2.101       .  S
Fe245       O246   2.103       .  S
Fe245       O254   1.986       .  S
O246        C253   1.274       .  A
O247        C261   1.265       .  A
O248        C253   1.264       .  A
O249        C252   1.267       .  A
O250        C262   1.276       .  A
O251        C264   1.269       .  A
C252        O257   1.276       .  A
C252       C1456   1.483       .  S
C253       C1556   1.486       .  S
O255        C258   1.268       .  A
O256        C258   1.267       .  A
C258       C1765   1.470       .  S
O259        C264   1.266       .  A
O260        C262   1.267       .  A
C261        O263   1.273       .  A
C261       C1405   1.496       .  S
C262       C1425   1.504       .  S
C264       C1465   1.481       .  S
Fe265       O281   2.038       .  S
Fe265       O271   2.066       .  S
Fe265       O278   2.077       .  S
Fe265       O270   2.026       .  S
Fe265       O276   1.967       .  S
Fe266       O269   2.034       .  S
Fe266       O273   2.076       .  S
Fe266       O277   2.038   1_554  S
Fe266       O282   2.077       .  S
Fe266       O276   1.960   1_554  S
Fe267       O285   2.078   1_556  S
Fe267       O272   2.082       .  S
Fe267       O279   2.089   1_556  S
Fe267       O268   2.080       .  S
Fe267       O276   1.978       .  S
O268        C275   1.268       .  A
O269        C283   1.262       .  A
O270        C275   1.259       .  A
O271        C274   1.272       .  A
O272        C284   1.276   1_556  A
O273        C286   1.270       .  A
C274        O279   1.276   1_556  A
C274       C1325   1.483       .  S
C275       C1305   1.457       .  S
O277        C280   1.265       .  A
O278        C280   1.270       .  A
C280       C1525   1.474       .  S
O281        C286   1.261   1_556  A
O282        C284   1.272       .  A
C283        O285   1.268       .  A
C283       C1365   1.463       .  S
C284       C1396   1.500   1_554  S
C286       C1345   1.488       .  S
Fe287       O303   2.034       .  S
Fe287       O293   2.066       .  S
Fe287       O300   2.086       .  S
Fe287       O292   2.016       .  S
Fe287       O298   1.934       .  S
Fe288       O291   2.021       .  S
Fe288       O295   2.088       .  S
Fe288       O299   2.033       .  S
Fe288       O304   2.081       .  S
Fe288       O298   1.936       .  S
Fe289       O307   2.103       .  S
Fe289       O294   2.080       .  S
Fe289       O301   2.082       .  S
Fe289       O290   2.099       .  S
Fe289       O298   1.954       .  S
O290        C297   1.274       .  A
O291        C305   1.262       .  A
O292        C297   1.263       .  A
O293        C296   1.271       .  A
O294        C306   1.274       .  A
O295        C308   1.271       .  A
C296        O301   1.274       .  A
C296       C1265   1.482       .  S
C297       C1216   1.482       .  S
O299        C302   1.265       .  A
O300        C302   1.272       .  A
C302       C1245   1.463       .  S
O303        C308   1.262       .  A
O304        C306   1.271       .  A
C305        O307   1.275       .  A
C305       C1376   1.459       .  S
C306       C1225   1.499       .  S
C308       C1296   1.479       .  S
Fe309       O325   2.047       .  S
Fe309       O315   2.054       .  S
Fe309       O322   2.070       .  S
Fe309       O314   2.032       .  S
Fe309       O320   1.967       .  S
Fe310       O313   2.048       .  S
Fe310       O317   2.075       .  S
Fe310       O321   2.053       .  S
Fe310       O326   2.062       .  S
Fe310       O320   1.961       .  S
Fe311       O329   2.105       .  S
Fe311       O316   2.079       .  S
Fe311       O323   2.090       .  S
Fe311       O312   2.113       .  S
Fe311       O320   1.978       .  S
O312        C319   1.277       .  A
O313        C327   1.268       .  A
O314        C319   1.264       .  A
O315        C318   1.267       .  A
O316        C328   1.270       .  A
O317        C330   1.269       .  A
C318        O323   1.273       .  A
C318       C1136   1.480       .  S
C319       C1176   1.488       .  S
O321        C324   1.269       .  A
O322        C324   1.269       .  A
C324       C1256   1.470       .  S
O325        C330   1.262       .  A
O326        C328   1.268       .  A
C327        O329   1.278       .  A
C327       C1105   1.474       .  S
C328       C1185   1.491       .  S
C330       C1156   1.491       .  S
Fe331       O347   2.045       .  S
Fe331       O337   2.068       .  S
Fe331       O344   2.070       .  S
Fe331       O336   2.040       .  S
Fe331       O342   1.959       .  S
Fe332       O335   2.033       .  S
Fe332       O339   2.092       .  S
Fe332       O343   2.047       .  S
Fe332       O348   2.078       .  S
Fe332       O342   1.961       .  S
Fe333       O351   2.108       .  S
Fe333       O338   2.077       .  S
Fe333       O345   2.080       .  S
Fe333       O334   2.112       .  S
Fe333       O342   1.971       .  S
O334        C341   1.276       .  A
O335        C349   1.264       .  A
O336        C341   1.264       .  A
O337        C340   1.270       .  A
O338        C350   1.271       .  A
O339        C352   1.273       .  A
C340        O345   1.273       .  A
C340       C1045   1.487       .  S
C341       C1165   1.479       .  S
O343        C346   1.266       .  A
O344        C346   1.268       .  A
C346       C1656   1.483       .  S
O347        C352   1.265       .  A
O348        C350   1.272       .  A
C349        O351   1.277       .  A
C349       C1025   1.482       .  S
C350       C1096   1.487       .  S
C352       C1065   1.486       .  S
Fe353       O369   2.074       .  S
Fe353       O359   2.058       .  S
Fe353       O366   2.067       .  S
Fe353       O358   2.063       .  S
Fe353       O364   1.974       .  S
Fe354       O357   2.048       .  S
Fe354       O361   2.064       .  S
Fe354       O365   2.053       .  S
Fe354       O370   2.059       .  S
Fe354       O364   1.968       .  S
Fe355       O373   2.090       .  S
Fe355       O360   2.096       .  S
Fe355       O367   2.108       .  S
Fe355       O356   2.089       .  S
Fe355       O364   1.981       .  S
O356        C363   1.270       .  A
O357        C371   1.265       .  A
O358        C363   1.266       .  A
O359        C362   1.270       .  A
O360        C372   1.276       .  A
O361        C374   1.270       .  A
C362        O367   1.279       .  A
C362       C1636   1.494       .  S
C363       C1016   1.487       .  S
O365        C368   1.265       .  A
O366        C368   1.267       .  A
C368        C996   1.471       .  S
O369        C374   1.271       .  A
O370        C372   1.271       .  A
C371        O373   1.270       .  A
C371       C2416   1.491       .  S
C372       C1856   1.498       .  S
C374       C1076   1.484   1_545  S
Fe375       O391   2.062       .  S
Fe375       O381   2.050       .  S
Fe375       O388   2.061       .  S
Fe375       O380   2.043       .  S
Fe375       O386   1.976       .  S
Fe376       O379   2.050       .  S
Fe376       O383   2.065       .  S
Fe376       O387   2.057       .  S
Fe376       O392   2.053       .  S
Fe376       O386   1.968       .  S
Fe377       O395   2.088       .  S
Fe377       O382   2.092       .  S
Fe377       O389   2.098       .  S
Fe377       O378   2.096       .  S
Fe377       O386   1.985       .  S
O378        C385   1.272       .  A
O379        C393   1.266       .  A
O380        C385   1.265       .  A
O381        C384   1.267       .  A
O382        C394   1.275       .  A
O383        C396   1.270       .  A
C384        O389   1.276       .  A
C384       C1236   1.480       .  S
C385       C1005   1.487       .  S
O387        C390   1.267       .  A
O388        C390   1.265       .  A
C390        C976   1.477       .  S
O391        C396   1.269       .  A
O392        C394   1.269       .  A
C393        O395   1.270       .  A
C393       C2516   1.489       .  S
C394       C2256   1.479       .  S
C396       C1145   1.480   1_545  S
Fe397       O413   2.033   1_565  S
Fe397       O403   2.070       .  S
Fe397       O410   2.080   1_565  S
Fe397       O402   2.024       .  S
Fe397       O408   1.938       .  S
Fe398       O401   2.035       .  S
Fe398       O405   2.093   1_565  S
Fe398       O409   2.044       .  S
Fe398       O414   2.093       .  S
Fe398       O408   1.934       .  S
Fe399       O417   2.101       .  S
Fe399       O404   2.076       .  S
Fe399       O411   2.080       .  S
Fe399       O400   2.106       .  S
Fe399       O408   1.953       .  S
O400        C407   1.276       .  A
O401        C415   1.263       .  A
O402        C407   1.263       .  A
O403        C406   1.272       .  A
O404        C416   1.277       .  A
O405        C418   1.276       .  A
C406        O411   1.274       .  A
C406       C2476   1.487       .  S
C407       C1316   1.475       .  S
O409        C412   1.266       .  A
O410        C412   1.269   1_545  A
C412        C936   1.474   1_565  S
O413        C418   1.262       .  A
O414        C416   1.276       .  A
C415        O417   1.273       .  A
C415        C945   1.478       .  S
C416       C1445   1.496       .  S
C418       C1976   1.487       .  S
Fe419       O435   2.036       .  S
Fe419       O425   2.066       .  S
Fe419       O432   2.091       .  S
Fe419       O424   2.016       .  S
Fe419       O430   1.937       .  S
Fe420       O423   2.033       .  S
Fe420       O427   2.094       .  S
Fe420       O431   2.040       .  S
Fe420       O436   2.078       .  S
Fe420       O430   1.926       .  S
Fe421       O439   2.108       .  S
Fe421       O426   2.083       .  S
Fe421       O433   2.097       .  S
Fe421       O422   2.110       .  S
Fe421       O430   1.948       .  S
O422        C429   1.279       .  A
O423        C437   1.265       .  A
O424        C429   1.264       .  A
O425        C428   1.269       .  A
O426        C438   1.275       .  A
O427        C440   1.276   1_565  A
C428        O433   1.276       .  A
C428       C2036   1.489       .  S
C429       C1205   1.471       .  S
O431        C434   1.263       .  A
O432        C434   1.270       .  A
C434        C985   1.466       .  S
O435        C440   1.262   1_565  A
O436        C438   1.273       .  A
C437        O439   1.276       .  A
C437        C956   1.469       .  S
C438       C1056   1.490       .  S
C440       C1865   1.486       .  S
Fe441       O457   2.038   1_566  S
Fe441       O447   2.073       .  S
Fe441       O454   2.081       .  S
Fe441       O446   2.028       .  S
Fe441       O452   1.943       .  S
Fe442       O445   2.044       .  S
Fe442       O449   2.092   1_565  S
Fe442       O453   2.047   1_554  S
Fe442       O458   2.083       .  S
Fe442       O452   1.935   1_554  S
Fe443       O461   2.104       .  S
Fe443       O448   2.081   1_554  S
Fe443       O455   2.085       .  S
Fe443       O444   2.107   1_554  S
Fe443       O452   1.948   1_554  S
O444        C451   1.276       .  A
O445        C459   1.266       .  A
O446        C451   1.263       .  A
O447        C450   1.270   1_556  A
O448        C460   1.275   1_556  A
O449        C462   1.275       .  A
C450        O455   1.274       .  A
C450       C2565   1.484       .  S
C451       C1716   1.463       .  S
O453        C456   1.266       .  A
O454        C456   1.269       .  A
C456        C896   1.477       .  S
O457        C462   1.264       .  A
O458        C460   1.273       .  A
C459        O461   1.275       .  A
C459        C905   1.479       .  S
C460       C1565   1.499   1_554  S
C462       C2365   1.478       .  S
Fe463       O479   2.041   1_565  S
Fe463       O469   2.054       .  S
Fe463       O476   2.071       .  S
Fe463       O468   2.027       .  S
Fe463       O474   1.969       .  S
Fe464       O467   2.038       .  S
Fe464       O471   2.074       .  S
Fe464       O475   2.047       .  S
Fe464       O480   2.055       .  S
Fe464       O474   1.957       .  S
Fe465       O483   2.103       .  S
Fe465       O470   2.085       .  S
Fe465       O477   2.094       .  S
Fe465       O466   2.096       .  S
Fe465       O474   1.975       .  S
O466        C473   1.275       .  A
O467        C481   1.264       .  A
O468        C473   1.263       .  A
O469        C472   1.266       .  A
O470        C482   1.273       .  A
O471        C484   1.272   1_565  A
C472        O477   1.274       .  A
C472       C2165   1.485       .  S
C473       C1605   1.461       .  S
O475        C478   1.264       .  A
O476        C478   1.265       .  A
C478        C965   1.473       .  S
O479        C484   1.264       .  A
O480        C482   1.267       .  A
C481        O483   1.275       .  A
C481        C916   1.472       .  S
C482       C1125   1.491       .  S
C484       C2276   1.484       .  S
Fe485       O501   2.052       .  S
Fe485       O491   2.050       .  S
Fe485       O498   2.057       .  S
Fe485       O490   2.038       .  S
Fe485       O496   1.980       .  S
Fe486       O489   2.049       .  S
Fe486       O493   2.067       .  S
Fe486       O497   2.053   1_554  S
Fe486       O502   2.052       .  S
Fe486       O496   1.967   1_554  S
Fe487       O505   2.098       .  S
Fe487       O492   2.089       .  S
Fe487       O499   2.097   1_554  S
Fe487       O488   2.100   1_554  S
Fe487       O496   1.988   1_554  S
O488        C495   1.273       .  A
O489        C503   1.266       .  A
O490        C495   1.263       .  A
O491        C494   1.266       .  A
O492        C504   1.276       .  A
O493        C506   1.271       .  A
C494        O499   1.275       .  A
C494       C1385   1.489       .  S
C495        C865   1.476       .  S
O497        C500   1.266       .  A
O498        C500   1.263       .  A
C500        C885   1.486       .  S
O501        C506   1.267   1_556  A
O502        C504   1.267       .  A
C503        O505   1.273       .  A
C503       C2105   1.492       .  S
C504       C2345   1.494       .  S
C506       C1585   1.480   1_545  S
Fe507       O523   2.036       .  S
Fe507       O513   2.076       .  S
Fe507       O520   2.073       .  S
Fe507       O512   2.023       .  S
Fe507       O518   1.957       .  S
Fe508       O511   2.041       .  S
Fe508       O515   2.091       .  S
Fe508       O519   2.045       .  S
Fe508       O524   2.089       .  S
Fe508       O518   1.962       .  S
Fe509       O527   2.108       .  S
Fe509       O514   2.080       .  S
Fe509       O521   2.093       .  S
Fe509       O510   2.113       .  S
Fe509       O518   1.972       .  S
O510        C517   1.273       .  A
O511        C525   1.263       .  A
O512        C517   1.260       .  A
O513        C516   1.273       .  A
O514        C526   1.274       .  A
O515        C528   1.272       .  A
C516        O521   1.278       .  A
C516       C1816   1.491       .  S
C517        C876   1.502       .  S
O519        C522   1.267       .  A
O520        C522   1.270       .  A
C522        C925   1.477       .  S
O523        C528   1.262       .  A
O524        C526   1.274       .  A
C525        O527   1.275       .  A
C525       C2016   1.476       .  S
C526       C1956   1.488       .  S
C528       C1476   1.487   1_545  S
Fe529       O545   2.042       .  S
Fe529       O535   2.058       .  S
Fe529       O542   2.082       .  S
Fe529       O534   2.034       .  S
Fe529       O540   1.948       .  S
Fe530       O533   2.025       .  S
Fe530       O537   2.077       .  S
Fe530       O541   2.050   1_554  S
Fe530       O546   2.059       .  S
Fe530       O540   1.944   1_554  S
Fe531       O549   2.098       .  S
Fe531       O536   2.089   1_554  S
Fe531       O543   2.087       .  S
Fe531       O532   2.105   1_554  S
Fe531       O540   1.964   1_554  S
O532        C539   1.278       .  A
O533        C547   1.262       .  A
O534        C539   1.269       .  A
O535        C538   1.267       .  A
O536        C548   1.274   1_556  A
O537        C550   1.273       .  A
C538        O543   1.271   1_556  A
C538       C1505   1.497       .  S
C539       C1916   1.469       .  S
O541        C544   1.264       .  A
O542        C544   1.268       .  A
C544        C825   1.475       .  S
O545        C550   1.265   1_556  A
O546        C548   1.270       .  A
C547        O549   1.275       .  A
C547        C845   1.472       .  S
C548       C2596   1.498       .  S
C550       C1356   1.483       .  S
Fe551       O567   2.045       .  S
Fe551       O557   2.061       .  S
Fe551       O564   2.085       .  S
Fe551       O556   2.031       .  S
Fe551       O562   1.955       .  S
Fe552       O555   2.030       .  S
Fe552       O559   2.092       .  S
Fe552       O563   2.039       .  S
Fe552       O568   2.063       .  S
Fe552       O562   1.941       .  S
Fe553       O571   2.099       .  S
Fe553       O558   2.088       .  S
Fe553       O565   2.090       .  S
Fe553       O554   2.101       .  S
Fe553       O562   1.959       .  S
O554        C561   1.279       .  A
O555        C569   1.266       .  A
O556        C561   1.268       .  A
O557        C560   1.265       .  A
O558        C570   1.274       .  A
O559        C572   1.276       .  A
C560        O565   1.271       .  A
C560       C1196   1.480       .  S
C561       C1836   1.459       .  S
O563        C566   1.260       .  A
O564        C566   1.268       .  A
C566        C805   1.478       .  S
O567        C572   1.267       .  A
O568        C570   1.268       .  A
C569        O571   1.277       .  A
C569        C856   1.474       .  S
C570       C2136   1.493       .  S
C572       C1285   1.486       .  S
Fe573       O589   2.067   1_556  S
Fe573       O579   2.039       .  S
Fe573       O586   2.060       .  S
Fe573       O578   2.054       .  S
Fe573       O584   1.961   1_556  S
Fe574       O577   2.063       .  S
Fe574       O581   2.065       .  S
Fe574       O585   2.066       .  S
Fe574       O590   2.053       .  S
Fe574       O584   1.960       .  S
Fe575       O593   2.079       .  S
Fe575       O580   2.106       .  S
Fe575       O587   2.110   1_554  S
Fe575       O576   2.076   1_554  S
Fe575       O584   1.971       .  S
O576        C583   1.269       .  A
O577        C591   1.266       .  A
O578        C583   1.267       .  A
O579        C582   1.265       .  A
O580        C592   1.277       .  A
O581        C594   1.271       .  A
C582        O587   1.278       .  A
C582       C2396   1.486       .  S
C583        C785   1.473       .  S
O585        C588   1.269   1_554  A
O586        C588   1.264       .  A
C588        C836   1.481       .  S
O589        C594   1.271       .  A
O590        C592   1.272       .  A
C591        O593   1.269       .  A
C591       C1116   1.474       .  S
C592       C1336   1.502       .  S
C594       C2616   1.477       .  S
Fe595       O611   2.063       .  S
Fe595       O601   2.048       .  S
Fe595       O608   2.059       .  S
Fe595       O600   2.047       .  S
Fe595       O606   1.970       .  S
Fe596       O599   2.047       .  S
Fe596       O603   2.055       .  S
Fe596       O607   2.055       .  S
Fe596       O612   2.051       .  S
Fe596       O606   1.963       .  S
Fe597       O615   2.085       .  S
Fe597       O602   2.096       .  S
Fe597       O609   2.098       .  S
Fe597       O598   2.087       .  S
Fe597       O606   1.973       .  S
O598        C605   1.272       .  A
O599        C613   1.264       .  A
O600        C605   1.265       .  A
O601        C604   1.267       .  A
O602        C614   1.276       .  A
O603        C616   1.267       .  A
C604        O609   1.275       .  A
C604       C1936   1.482       .  S
C605        C796   1.479       .  S
O607        C610   1.267       .  A
O608        C610   1.266       .  A
C610        C776   1.462       .  S
O611        C616   1.268       .  A
O612        C614   1.266       .  A
C613        O615   1.272       .  A
C613       C1036   1.491       .  S
C614       C1725   1.495       .  S
C616       C2456   1.475       .  S
Fe617       O633   2.041       .  S
Fe617       O623   2.048       .  S
Fe617       O630   2.065       .  S
Fe617       O622   2.031       .  S
Fe617       O628   1.975       .  S
Fe618       O621   2.039       .  S
Fe618       O625   2.077       .  S
Fe618       O629   2.048       .  S
Fe618       O634   2.062       .  S
Fe618       O628   1.972       .  S
Fe619       O637   2.085       .  S
Fe619       O624   2.084       .  S
Fe619       O631   2.101       .  S
Fe619       O620   2.086       .  S
Fe619       O628   1.987       .  S
O620        C627   1.273       .  A
O621        C635   1.265       .  A
O622        C627   1.264       .  A
O623        C626   1.265       .  A
O624        C636   1.271       .  A
O625        C638   1.270       .  A
C626        O631   1.274       .  A
C626       C1436   1.483       .  S
C627       C2316   1.468       .  S
O629        C632   1.265       .  A
O630        C632   1.265       .  A
C632        C765   1.460       .  S
O633        C638   1.262       .  A
O634        C636   1.269       .  A
C635        O637   1.273       .  A
C635        C745   1.468       .  S
C636       C2436   1.498       .  S
C638       C1756   1.489       .  S
Fe639       O655   2.059       .  S
Fe639       O645   2.043       .  S
Fe639       O652   2.061       .  S
Fe639       O644   2.054       .  S
Fe639       O650   1.969       .  S
Fe640       O643   2.049       .  S
Fe640       O647   2.078       .  S
Fe640       O651   2.053       .  S
Fe640       O656   2.060       .  S
Fe640       O650   1.962       .  S
Fe641       O659   2.077       .  S
Fe641       O646   2.091       .  S
Fe641       O653   2.102       .  S
Fe641       O642   2.068       .  S
Fe641       O650   1.975       .  S
O642        C649   1.271       .  A
O643        C657   1.268       .  A
O644        C649   1.268       .  A
O645        C648   1.266       .  A
O646        C658   1.273       .  A
O647        C660   1.271       .  A
C648        O653   1.273       .  A
C648       C1085   1.493       .  S
C649       C2216   1.474       .  S
O651        C654   1.267       .  A
O652        C654   1.264       .  A
C654        C725   1.463       .  S
O655        C660   1.268       .  A
O656        C658   1.267       .  A
C657        O659   1.274       .  A
C657        C756   1.472       .  S
C658       C2056   1.494       .  S
C660       C1685   1.486       .  S
Fe661       O677   2.059       .  S
Fe661       O667   2.052       .  S
Fe661       O674   2.065       .  S
Fe661       O666   2.048       .  S
Fe661       O672   1.981       .  S
Fe662       O665   2.041       .  S
Fe662       O669   2.067       .  S
Fe662       O673   2.051       .  S
Fe662       O678   2.056       .  S
Fe662       O672   1.969       .  S
Fe663       O681   2.100       .  S
Fe663       O668   2.094       .  S
Fe663       O675   2.097       .  S
Fe663       O664   2.101       .  S
Fe663       O672   1.987       .  S
O664        C671   1.275       .  A
O665        C679   1.263       .  A
O666        C671   1.266       .  A
O667        C670   1.266       .  A
O668        C680   1.275       .  A
O669        C682   1.269       .  A
C670        O675   1.275       .  A
C670       C1896   1.492       .  S
C671        C705   1.484       .  S
O673        C676   1.267       .  A
O674        C676   1.266       .  A
C676        C736   1.480       .  S
O677        C682   1.267       .  A
O678        C680   1.266       .  A
C679        O681   1.275       .  A
C679       C1416   1.494       .  S
C680       C1676   1.502       .  S
C682       C2065   1.486       .  S
Fe683       O699   2.046       .  S
Fe683       O689   2.049       .  S
Fe683       O696   2.055       .  S
Fe683       O688   2.039       .  S
Fe683       O694   1.980       .  S
Fe684       O687   2.070       .  S
Fe684       O691   2.067       .  S
Fe684       O695   2.074       .  S
Fe684       O700   2.062       .  S
Fe684       O694   1.975       .  S
Fe685       O703   2.089       .  S
Fe685       O690   2.075       .  S
Fe685       O697   2.086       .  S
Fe685       O686   2.097       .  S
Fe685       O694   1.987       .  S
O686        C693   1.272       .  A
O687        C701   1.270       .  A
O688        C693   1.261       .  A
O689        C692   1.267       .  A
O690        C702   1.271       .  A
O691        C704   1.267       .  A
C692        O697   1.273       .  A
C692       C2225   1.474       .  S
C693        C716   1.475       .  S
O695        C698   1.270       .  A
O696        C698   1.268       .  A
C698        C816   1.493       .  S
O699        C704   1.264       .  A
O700        C702   1.268       .  A
C701        O703   1.273       .  A
C701       C1496   1.489       .  S
C702       C1276   1.489       .  S
C704       C2145   1.476       .  S
C705        C706   1.412       .  A
C705        C710   1.407       .  A
C706        C707   1.396       .  A
C706       Br722   1.918       .  S
C707        C708   1.401       .  A
C707        H711   1.084       .  S
C708        C712   1.487       .  S
C708        C709   1.411       .  A
C709        C710   1.409       .  A
C709       Br721   1.917       .  S
C710        H713   1.083       .  S
C712        C714   1.405       .  A
C712        C718   1.411       .  A
C714        C715   1.403       .  A
C714        H719   1.083       .  S
C715        C716   1.409       .  A
C715       Br723   1.920       .  S
C716        C717   1.403       .  A
C717        C718   1.402       .  A
C717        H720   1.084       .  S
C718       Br724   1.919       .  S
C725        C726   1.406       .  A
C725        C730   1.401       .  A
C726        C727   1.398       .  A
C726       Br742   1.919       .  S
C727        C728   1.404       .  A
C727        H731   1.084       .  S
C728        C732   1.471       .  S
C728        C729   1.405       .  A
C729        C730   1.395       .  A
C729       Br741   1.918       .  S
C730        H733   1.082       .  S
C732        C734   1.401       .  A
C732        C738   1.407       .  A
C734        C735   1.404       .  A
C734        H739   1.083       .  S
C735        C736   1.417       .  A
C735       Br743   1.920       .  S
C736        C737   1.404       .  A
C737        C738   1.389       .  A
C737        H740   1.084       .  S
C738       Br744   1.924       .  S
C745        C746   1.410       .  A
C745        C750   1.402       .  A
C746        C747   1.402       .  A
C746       Br762   1.919       .  S
C747        C748   1.402       .  A
C747        H751   1.083       .  S
C748        C752   1.472       .  S
C748        C749   1.407       .  A
C749        C750   1.394       .  A
C749       Br761   1.921       .  S
C750        H753   1.084       .  S
C752        C754   1.397       .  A
C752        C758   1.409       .  A
C754        C755   1.395       .  A
C754        H759   1.084       .  S
C755        C756   1.414       .  A
C755       Br763   1.923       .  S
C756        C757   1.402       .  A
C757        C758   1.399       .  A
C757        H760   1.084       .  S
C758       Br764   1.918       .  S
C765        C766   1.406       .  A
C765        C770   1.402       .  A
C766        C767   1.394       .  A
C766       Br782   1.921       .  S
C767        C768   1.402       .  A
C767        H771   1.084       .  S
C768        C772   1.473       .  S
C768        C769   1.408       .  A
C769        C770   1.398       .  A
C769       Br781   1.918       .  S
C770        H773   1.084       .  S
C772        C774   1.405       .  A
C772        C778   1.411       .  A
C774        C775   1.402       .  A
C774        H779   1.083       .  S
C775        C776   1.406       .  A
C775       Br783   1.917       .  S
C776        C777   1.397       .  A
C777        C778   1.389       .  A
C777        H780   1.084       .  S
C778       Br784   1.924       .  S
C785        C786   1.410       .  A
C785        C790   1.402       .  A
C786        C787   1.402       .  A
C786       Br802   1.919       .  S
C787        C788   1.404       .  A
C787        H791   1.083       .  S
C788        C792   1.480       .  S
C788        C789   1.409       .  A
C789        C790   1.396       .  A
C789       Br801   1.916       .  S
C790        H793   1.084       .  S
C792        C794   1.401       .  A
C792        C798   1.408       .  A
C794        C795   1.396       .  A
C794        H799   1.084       .  S
C795        C796   1.412       .  A
C795       Br803   1.922       .  S
C796        C797   1.407       .  A
C797        C798   1.404       .  A
C797        H800   1.084       .  S
C798       Br804   1.917       .  S
C805        C806   1.412       .  A
C805        C810   1.405       .  A
C806        C807   1.397       .  A
C806       Br822   1.922       .  S
C807        C808   1.403       .  A
C807        H811   1.081       .  S
C808        C812   1.480       .  S
C808        C809   1.408       .  A
C809        C810   1.399       .  A
C809       Br821   1.918       .  S
C810        H813   1.082       .  S
C812        C814   1.403       .  A
C812        C818   1.404       .  A
C814        C815   1.396       .  A
C814        H819   1.075       .  S
C815        C816   1.418       .  A
C815       Br823   1.924       .  S
C816        C817   1.415       .  A
C817        C818   1.401       .  A
C817        H820   1.074       .  S
C818       Br824   1.919       .  S
C825        C826   1.413       .  A
C825        C830   1.405       .  A
C826        C827   1.398       .  A
C826       Br842   1.922       .  S
C827        C828   1.400       .  A
C827        H831   1.084       .  S
C828        C832   1.476       .  S
C828        C829   1.407       .  A
C829        C830   1.400       .  A
C829       Br841   1.918       .  S
C830        H833   1.084       .  S
C832        C834   1.404   1_455  A
C832        C838   1.406   1_455  A
C834        C835   1.407       .  A
C834        H839   1.083       .  S
C835        C836   1.415       .  A
C835       Br843   1.920       .  S
C836        C837   1.404       .  A
C837        C838   1.390       .  A
C837        H840   1.084   1_556  S
C838       Br844   1.922   1_656  S
C845        C846   1.413       .  A
C845        C850   1.404       .  A
C846        C847   1.393       .  A
C846       Br862   1.924       .  S
C847        C848   1.398       .  A
C847        H851   1.084       .  S
C848        C852   1.470       .  S
C848        C849   1.406       .  A
C849        C850   1.401       .  A
C849       Br861   1.916       .  S
C850        H853   1.083       .  S
C852        C854   1.405       .  A
C852        C858   1.401       .  A
C854        C855   1.402       .  A
C854        H859   1.083       .  S
C855        C856   1.407       .  A
C855       Br863   1.915       .  S
C856        C857   1.407       .  A
C857        C858   1.392       .  A
C857        H860   1.083       .  S
C858       Br864   1.919       .  S
C865        C866   1.406       .  A
C865        C870   1.405       .  A
C866        C867   1.405       .  A
C866       Br882   1.917       .  S
C867        C868   1.409       .  A
C867        H871   1.083       .  S
C868        C872   1.486       .  S
C868        C869   1.408       .  A
C869        C870   1.400       .  A
C869       Br881   1.919       .  S
C870        H873   1.084       .  S
C872        C874   1.408       .  A
C872        C878   1.404       .  A
C874        C875   1.413       .  A
C874        H879   1.083       .  S
C875        C876   1.419       .  A
C875       Br883   1.918       .  S
C876        C877   1.412       .  A
C877        C878   1.390       .  A
C877        H880   1.082       .  S
C878       Br884   1.923       .  S
C885        C886   1.420       .  A
C885        C890   1.406       .  A
C886        C887   1.404       .  A
C886       Br902   1.922       .  S
C887        C888   1.400       .  A
C887        H891   1.083       .  S
C888        C892   1.470       .  S
C888        C889   1.405       .  A
C889        C890   1.388       .  A
C889       Br901   1.923   1_556  S
C890        H893   1.083   1_556  S
C892        C894   1.400       .  A
C892        C898   1.405   1_545  A
C894        C895   1.398       .  A
C894        H899   1.084       .  S
C895        C896   1.415   1_545  A
C895       Br903   1.919       .  S
C896        C897   1.406       .  A
C897        C898   1.395       .  A
C897        H900   1.084       .  S
C898       Br904   1.919       .  S
C905        C906   1.412       .  A
C905        C910   1.404       .  A
C906        C907   1.404       .  A
C906       Br922   1.919       .  S
C907        C908   1.403       .  A
C907        H911   1.083       .  S
C908        C912   1.484       .  S
C908        C909   1.409       .  A
C909        C910   1.398       .  A
C909       Br921   1.920       .  S
C910        H913   1.084       .  S
C912        C914   1.400       .  A
C912        C918   1.413       .  A
C914        C915   1.400       .  A
C914        H919   1.083       .  S
C915        C916   1.411       .  A
C915       Br923   1.920       .  S
C916        C917   1.401       .  A
C917        C918   1.403       .  A
C917        H920   1.083       .  S
C918       Br924   1.919       .  S
C925        C926   1.414       .  A
C925        C930   1.405       .  A
C926        C927   1.402       .  A
C926       Br942   1.920       .  S
C927        C928   1.401       .  A
C927        H931   1.083       .  S
C928        C932   1.469       .  S
C928        C929   1.405       .  A
C929        C930   1.390       .  A
C929       Br941   1.921       .  S
C930        H933   1.084       .  S
C932        C934   1.401       .  A
C932        C938   1.405       .  A
C934        C935   1.400       .  A
C934        H939   1.084       .  S
C935        C936   1.413       .  A
C935       Br943   1.921       .  S
C936        C937   1.404   1_545  A
C937        C938   1.393   1_565  A
C937        H940   1.084       .  S
C938       Br944   1.920   1_545  S
C945        C946   1.413       .  A
C945        C950   1.405       .  A
C946        C947   1.403       .  A
C946       Br962   1.919       .  S
C947        C948   1.401       .  A
C947        H951   1.083       .  S
C948        C952   1.479       .  S
C948        C949   1.409       .  A
C949        C950   1.395       .  A
C949       Br961   1.922       .  S
C950        H953   1.084       .  S
C952        C954   1.400       .  A
C952        C958   1.410       .  A
C954        C955   1.401       .  A
C954        H959   1.083       .  S
C955        C956   1.412       .  A
C955       Br963   1.918       .  S
C956        C957   1.401       .  A
C957        C958   1.397       .  A
C957        H960   1.084       .  S
C958       Br964   1.920       .  S
C965        C966   1.411   1_565  A
C965        C970   1.404       .  A
C966        C967   1.399       .  A
C966       Br982   1.920       .  S
C967        C968   1.401       .  A
C967        H971   1.084       .  S
C968        C972   1.473       .  S
C968        C969   1.406   1_545  A
C969        C970   1.396       .  A
C969       Br981   1.919       .  S
C970        H973   1.083       .  S
C972        C974   1.402       .  A
C972        C978   1.408       .  A
C974        C975   1.405       .  A
C974        H979   1.083       .  S
C975        C976   1.415       .  A
C975       Br983   1.920       .  S
C976        C977   1.402       .  A
C977        C978   1.389       .  A
C977        H980   1.084       .  S
C978       Br984   1.924   1_545  S
C985        C986   1.409   1_565  A
C985        C990   1.403       .  A
C986        C987   1.398       .  A
C986      Br1002   1.920       .  S
C987        C988   1.402       .  A
C987        H991   1.084       .  S
C988        C992   1.472       .  S
C988        C989   1.405   1_545  A
C989        C990   1.396       .  A
C989      Br1001   1.918       .  S
C990        H993   1.083       .  S
C992        C994   1.402   1_455  A
C992        C998   1.407   1_455  A
C994        C995   1.404       .  A
C994        H999   1.083   1_655  S
C995        C996   1.410       .  A
C995      Br1003   1.915       .  S
C996        C997   1.401       .  A
C997        C998   1.391       .  A
C997       H1000   1.084       .  S
C998      Br1004   1.922   1_645  S
C1005      C1006   1.415       .  A
C1005      C1010   1.404       .  A
C1006      C1007   1.411       .  A
C1006     Br1022   1.919       .  S
C1007      C1008   1.406       .  A
C1007      H1011   1.083       .  S
C1008      C1012   1.487       .  S
C1008      C1009   1.406       .  A
C1009      C1010   1.394       .  A
C1009     Br1021   1.916       .  S
C1010      H1013   1.084       .  S
C1012      C1014   1.403       .  A
C1012      C1018   1.409       .  A
C1014      C1015   1.400       .  A
C1014      H1019   1.084       .  S
C1015      C1016   1.411       .  A
C1015     Br1023   1.916       .  S
C1016      C1017   1.408       .  A
C1017      C1018   1.407       .  A
C1017      H1020   1.083       .  S
C1018     Br1024   1.916       .  S
C1025      C1026   1.412       .  A
C1025      C1030   1.403       .  A
C1026      C1027   1.397       .  A
C1026     Br1042   1.923       .  S
C1027      C1028   1.403       .  A
C1027      H1031   1.083       .  S
C1028      C1032   1.492       .  S
C1028      C1029   1.416       .  A
C1029      C1030   1.404       .  A
C1029     Br1041   1.921       .  S
C1030      H1033   1.083       .  S
C1032      C1034   1.401       .  A
C1032      C1038   1.414       .  A
C1034      C1035   1.394       .  A
C1034      H1039   1.083       .  S
C1035      C1036   1.419       .  A
C1035     Br1043   1.927       .  S
C1036      C1037   1.408       .  A
C1037      C1038   1.405       .  A
C1037      H1040   1.083       .  S
C1038     Br1044   1.919       .  S
C1045      C1046   1.415   1_655  A
C1045      C1050   1.407   1_655  A
C1046      C1047   1.400       .  A
C1046     Br1062   1.920   1_455  S
C1047      C1048   1.401       .  A
C1047      H1051   1.084       .  S
C1048      C1052   1.484       .  S
C1048      C1049   1.409       .  A
C1049      C1050   1.404       .  A
C1049     Br1061   1.918       .  S
C1050      H1053   1.083       .  S
C1052      C1054   1.399       .  A
C1052      C1058   1.409       .  A
C1054      C1055   1.398       .  A
C1054      H1059   1.084       .  S
C1055      C1056   1.417       .  A
C1055     Br1063   1.922       .  S
C1056      C1057   1.408       .  A
C1057      C1058   1.406       .  A
C1057      H1060   1.083       .  S
C1058     Br1064   1.917       .  S
C1065      C1066   1.416       .  A
C1065      C1070   1.407       .  A
C1066      C1067   1.398       .  A
C1066     Br1082   1.924       .  S
C1067      C1068   1.401       .  A
C1067      H1071   1.084       .  S
C1068      C1072   1.482       .  S
C1068      C1069   1.407       .  A
C1069      C1070   1.402       .  A
C1069     Br1081   1.917       .  S
C1070      H1073   1.083       .  S
C1072      C1074   1.403       .  A
C1072      C1078   1.407       .  A
C1074      C1075   1.398       .  A
C1074      H1079   1.084       .  S
C1075      C1076   1.413       .  A
C1075     Br1083   1.922       .  S
C1076      C1077   1.408       .  A
C1077      C1078   1.401       .  A
C1077      H1080   1.083       .  S
C1078     Br1084   1.918       .  S
C1085      C1086   1.416       .  A
C1085      C1090   1.404       .  A
C1086      C1087   1.410       .  A
C1086     Br1102   1.919       .  S
C1087      C1088   1.407       .  A
C1087      H1091   1.086       .  S
C1088      C1092   1.488       .  S
C1088      C1089   1.408       .  A
C1089      C1090   1.393       .  A
C1089     Br1101   1.923       .  S
C1090      H1093   1.087       .  S
C1092      C1094   1.403       .  A
C1092      C1098   1.409       .  A
C1094      C1095   1.404       .  A
C1094      H1099   1.083       .  S
C1095      C1096   1.414       .  A
C1095     Br1103   1.917       .  S
C1096      C1097   1.406       .  A
C1097      C1098   1.401       .  A
C1097      H1100   1.083       .  S
C1098     Br1104   1.919       .  S
C1105      C1106   1.409       .  A
C1105      C1110   1.402       .  A
C1106      C1107   1.404       .  A
C1106     Br1122   1.918       .  S
C1107      C1108   1.405       .  A
C1107      H1111   1.083       .  S
C1108      C1112   1.484       .  S
C1108      C1109   1.410       .  A
C1109      C1110   1.400       .  A
C1109     Br1121   1.920       .  S
C1110      H1113   1.084       .  S
C1112      C1114   1.403       .  A
C1112      C1118   1.410       .  A
C1114      C1115   1.400       .  A
C1114      H1119   1.083       .  S
C1115      C1116   1.409       .  A
C1115     Br1123   1.920       .  S
C1116      C1117   1.403       .  A
C1117      C1118   1.403       .  A
C1117      H1120   1.083       .  S
C1118     Br1124   1.917       .  S
C1125      C1126   1.420       .  A
C1125      C1130   1.410       .  A
C1126      C1127   1.395       .  A
C1126     Br1142   1.924       .  S
C1127      C1128   1.398       .  A
C1127      H1131   1.084       .  S
C1128      C1132   1.481       .  S
C1128      C1129   1.407       .  A
C1129      C1130   1.406       .  A
C1129     Br1141   1.916       .  S
C1130      H1133   1.083       .  S
C1132      C1134   1.401       .  A
C1132      C1138   1.410       .  A
C1134      C1135   1.398       .  A
C1134      H1139   1.084       .  S
C1135      C1136   1.412       .  A
C1135     Br1143   1.921       .  S
C1136      C1137   1.405       .  A
C1137      C1138   1.405       .  A
C1137      H1140   1.083       .  S
C1138     Br1144   1.918       .  S
C1145      C1146   1.414       .  A
C1145      C1150   1.407       .  A
C1146      C1147   1.397       .  A
C1146     Br1162   1.923       .  S
C1147      C1148   1.401       .  A
C1147      H1151   1.084       .  S
C1148      C1152   1.474       .  S
C1148      C1149   1.405       .  A
C1149      C1150   1.399       .  A
C1149     Br1161   1.917       .  S
C1150      H1153   1.083       .  S
C1152      C1154   1.398       .  A
C1152      C1158   1.402       .  A
C1154      C1155   1.395       .  A
C1154      H1159   1.084       .  S
C1155      C1156   1.421       .  A
C1155     Br1163   1.925       .  S
C1156      C1157   1.412       .  A
C1157      C1158   1.401       .  A
C1157      H1160   1.083       .  S
C1158     Br1164   1.917       .  S
C1165      C1166   1.409       .  A
C1165      C1170   1.404       .  A
C1166      C1167   1.407       .  A
C1166     Br1182   1.916       .  S
C1167      C1168   1.407       .  A
C1167      H1171   1.083       .  S
C1168      C1172   1.489       .  S
C1168      C1169   1.409       .  A
C1169      C1170   1.399       .  A
C1169     Br1181   1.919       .  S
C1170      H1173   1.083       .  S
C1172      C1174   1.407       .  A
C1172      C1178   1.409       .  A
C1174      C1175   1.411       .  A
C1174      H1179   1.083       .  S
C1175      C1176   1.413       .  A
C1175     Br1183   1.918       .  S
C1176      C1177   1.406       .  A
C1177      C1178   1.395       .  A
C1177      H1180   1.084       .  S
C1178     Br1184   1.922       .  S
C1185      C1186   1.416       .  A
C1185      C1190   1.406       .  A
C1186      C1187   1.408       .  A
C1186     Br1202   1.919       .  S
C1187      C1188   1.407       .  A
C1187      H1191   1.083       .  S
C1188      C1192   1.488       .  S
C1188      C1189   1.408       .  A
C1189      C1190   1.394       .  A
C1189     Br1201   1.922   1_655  S
C1190      H1193   1.082       .  S
C1192      C1194   1.407   1_655  A
C1192      C1198   1.409       .  A
C1194      C1195   1.403       .  A
C1194      H1199   1.083       .  S
C1195      C1196   1.408       .  A
C1195     Br1203   1.915       .  S
C1196      C1197   1.406       .  A
C1197      C1198   1.401   1_455  A
C1197      H1200   1.084       .  S
C1198     Br1204   1.919       .  S
C1205      C1206   1.414       .  A
C1205      C1210   1.405       .  A
C1206      C1207   1.389       .  A
C1206     Br1222   1.923       .  S
C1207      C1208   1.397       .  A
C1207      H1211   1.084       .  S
C1208      C1212   1.468       .  S
C1208      C1209   1.407       .  A
C1209      C1210   1.401       .  A
C1209     Br1221   1.917       .  S
C1210      H1213   1.083       .  S
C1212      C1214   1.402       .  A
C1212      C1218   1.401       .  A
C1214      C1215   1.402       .  A
C1214      H1219   1.084       .  S
C1215      C1216   1.416       .  A
C1215     Br1223   1.920       .  S
C1216      C1217   1.410       .  A
C1217      C1218   1.387       .  A
C1217      H1220   1.083       .  S
C1218     Br1224   1.922       .  S
C1225      C1226   1.422       .  A
C1225      C1230   1.411       .  A
C1226      C1227   1.399       .  A
C1226     Br1242   1.925       .  S
C1227      C1228   1.399   1_565  A
C1227      H1231   1.084       .  S
C1228      C1232   1.488       .  S
C1228      C1229   1.408       .  A
C1229      C1230   1.406   1_545  A
C1229     Br1241   1.917       .  S
C1230      H1233   1.083       .  S
C1232      C1234   1.404       .  A
C1232      C1238   1.411       .  A
C1234      C1235   1.403       .  A
C1234      H1239   1.084       .  S
C1235      C1236   1.411   1_455  A
C1235     Br1243   1.919   1_455  S
C1236      C1237   1.402   1_655  A
C1237      C1238   1.402       .  A
C1237      H1240   1.082   1_455  S
C1238     Br1244   1.919       .  S
C1245      C1246   1.407       .  A
C1245      C1250   1.406       .  A
C1246      C1247   1.388       .  A
C1246     Br1262   1.923       .  S
C1247      C1248   1.400       .  A
C1247      H1251   1.084       .  S
C1248      C1252   1.468       .  S
C1248      C1249   1.406       .  A
C1249      C1250   1.403       .  A
C1249     Br1261   1.916       .  S
C1250      H1253   1.084       .  S
C1252      C1254   1.401       .  A
C1252      C1258   1.406   1_455  A
C1254      C1255   1.394   1_455  A
C1254      H1259   1.084       .  S
C1255      C1256   1.409       .  A
C1255     Br1263   1.917       .  S
C1256      C1257   1.404       .  A
C1257      C1258   1.397       .  A
C1257      H1260   1.084       .  S
C1258     Br1264   1.918       .  S
C1265      C1266   1.413       .  A
C1265      C1270   1.406       .  A
C1266      C1267   1.395       .  A
C1266     Br1282   1.922       .  S
C1267      C1268   1.402       .  A
C1267      H1271   1.084       .  S
C1268      C1272   1.486       .  S
C1268      C1269   1.412       .  A
C1269      C1270   1.405       .  A
C1269     Br1281   1.918       .  S
C1270      H1273   1.083       .  S
C1272      C1274   1.402       .  A
C1272      C1278   1.410       .  A
C1274      C1275   1.399       .  A
C1274      H1279   1.083       .  S
C1275      C1276   1.417       .  A
C1275     Br1283   1.923       .  S
C1276      C1277   1.407       .  A
C1277      C1278   1.401       .  A
C1277      H1280   1.083       .  S
C1278     Br1284   1.919       .  S
C1285      C1286   1.416       .  A
C1285      C1290   1.410       .  A
C1286      C1287   1.393       .  A
C1286     Br1302   1.925       .  S
C1287      C1288   1.402       .  A
C1287      H1291   1.084       .  S
C1288      C1292   1.483       .  S
C1288      C1289   1.408       .  A
C1289      C1290   1.402       .  A
C1289     Br1301   1.919       .  S
C1290      H1293   1.083       .  S
C1292      C1294   1.403       .  A
C1292      C1298   1.411       .  A
C1294      C1295   1.396       .  A
C1294      H1299   1.083       .  S
C1295      C1296   1.414       .  A
C1295     Br1303   1.924       .  S
C1296      C1297   1.404       .  A
C1297      C1298   1.398       .  A
C1297      H1300   1.083       .  S
C1298     Br1304   1.920       .  S
C1305      C1306   1.404       .  A
C1305      C1310   1.402       .  A
C1306      C1307   1.395       .  A
C1306     Br1322   1.920       .  S
C1307      C1308   1.403       .  A
C1307      H1311   1.084       .  S
C1308      C1312   1.470       .  S
C1308      C1309   1.406       .  A
C1309      C1310   1.397       .  A
C1309     Br1321   1.918       .  S
C1310      H1313   1.084       .  S
C1312      C1314   1.405       .  A
C1312      C1318   1.401       .  A
C1314      C1315   1.402       .  A
C1314      H1319   1.083       .  S
C1315      C1316   1.409       .  A
C1315     Br1323   1.918       .  S
C1316      C1317   1.407       .  A
C1317      C1318   1.391       .  A
C1317      H1320   1.084       .  S
C1318     Br1324   1.920       .  S
C1325      C1326   1.412   1_556  A
C1325      C1330   1.406       .  A
C1326      C1327   1.406       .  A
C1326     Br1342   1.919       .  S
C1327      C1328   1.406   1_455  A
C1327      H1331   1.083   1_455  S
C1328      C1332   1.485       .  S
C1328      C1329   1.407   1_554  A
C1329      C1330   1.399   1_655  A
C1329     Br1341   1.919       .  S
C1330      H1333   1.084       .  S
C1332      C1334   1.403       .  A
C1332      C1338   1.404       .  A
C1334      C1335   1.408       .  A
C1334      H1339   1.083       .  S
C1335      C1336   1.422       .  A
C1335     Br1343   1.920       .  S
C1336      C1337   1.412       .  A
C1337      C1338   1.396       .  A
C1337      H1340   1.083       .  S
C1338     Br1344   1.921   1_655  S
C1345      C1346   1.421       .  A
C1345      C1350   1.411       .  A
C1346      C1347   1.392       .  A
C1346     Br1362   1.927   1_554  S
C1347      C1348   1.398       .  A
C1347      H1351   1.084       .  S
C1348      C1352   1.474       .  S
C1348      C1349   1.404       .  A
C1349      C1350   1.400       .  A
C1349     Br1361   1.918       .  S
C1350      H1353   1.083       .  S
C1352      C1354   1.401       .  A
C1352      C1358   1.405       .  A
C1354      C1355   1.397       .  A
C1354      H1359   1.084       .  S
C1355      C1356   1.418       .  A
C1355     Br1363   1.926       .  S
C1356      C1357   1.408       .  A
C1357      C1358   1.395       .  A
C1357      H1360   1.083       .  S
C1358     Br1364   1.919       .  S
C1365      C1366   1.411       .  A
C1365      C1370   1.401       .  A
C1366      C1367   1.397       .  A
C1366     Br1382   1.919       .  S
C1367      C1368   1.399       .  A
C1367      H1371   1.084       .  S
C1368      C1372   1.470       .  S
C1368      C1369   1.410       .  A
C1369      C1370   1.395       .  A
C1369     Br1381   1.921       .  S
C1370      H1373   1.084       .  S
C1372      C1374   1.399       .  A
C1372      C1378   1.409       .  A
C1374      C1375   1.396       .  A
C1374      H1379   1.084       .  S
C1375      C1376   1.409       .  A
C1375     Br1383   1.919       .  S
C1376      C1377   1.402       .  A
C1377      C1378   1.395       .  A
C1377      H1380   1.084       .  S
C1378     Br1384   1.921       .  S
C1385      C1386   1.416       .  A
C1385      C1390   1.406   1_556  A
C1386      C1387   1.401       .  A
C1386     Br1402   1.921       .  S
C1387      C1388   1.402       .  A
C1387      H1391   1.083       .  S
C1388      C1392   1.489       .  S
C1388      C1389   1.410   1_556  A
C1389      C1390   1.404       .  A
C1389     Br1401   1.918       .  S
C1390      H1393   1.082       .  S
C1392      C1394   1.401   1_546  A
C1392      C1398   1.407       .  A
C1394      C1395   1.402       .  A
C1394      H1399   1.084       .  S
C1395      C1396   1.423   1_554  A
C1395     Br1403   1.924       .  S
C1396      C1397   1.410       .  A
C1397      C1398   1.404   1_565  A
C1397      H1400   1.083       .  S
C1398     Br1404   1.917       .  S
C1405      C1406   1.420       .  A
C1405      C1410   1.409       .  A
C1406      C1407   1.400       .  A
C1406     Br1422   1.924       .  S
C1407      C1408   1.401       .  A
C1407      H1411   1.084       .  S
C1408      C1412   1.488       .  S
C1408      C1409   1.409       .  A
C1409      C1410   1.404       .  A
C1409     Br1421   1.918       .  S
C1410      H1413   1.083       .  S
C1412      C1414   1.399       .  A
C1412      C1418   1.410       .  A
C1414      C1415   1.397       .  A
C1414      H1419   1.084       .  S
C1415      C1416   1.421       .  A
C1415     Br1423   1.926       .  S
C1416      C1417   1.408       .  A
C1417      C1418   1.406       .  A
C1417      H1420   1.083       .  S
C1418     Br1424   1.917       .  S
C1425      C1426   1.423       .  A
C1425      C1430   1.411       .  A
C1426      C1427   1.400       .  A
C1426     Br1442   1.924       .  S
C1427      C1428   1.401       .  A
C1427      H1431   1.084       .  S
C1428      C1432   1.496       .  S
C1428      C1429   1.412       .  A
C1429      C1430   1.408       .  A
C1429     Br1441   1.919       .  S
C1430      H1433   1.083       .  S
C1432      C1434   1.403       .  A
C1432      C1438   1.416       .  A
C1434      C1435   1.399       .  A
C1434      H1439   1.083       .  S
C1435      C1436   1.411       .  A
C1435     Br1443   1.919       .  S
C1436      C1437   1.404       .  A
C1437      C1438   1.408       .  A
C1437      H1440   1.083       .  S
C1438     Br1444   1.918       .  S
C1445      C1446   1.420       .  A
C1445      C1450   1.410       .  A
C1446      C1447   1.403       .  A
C1446     Br1462   1.922       .  S
C1447      C1448   1.401       .  A
C1447      H1451   1.084       .  S
C1448      C1452   1.486       .  S
C1448      C1449   1.406       .  A
C1449      C1450   1.404       .  A
C1449     Br1461   1.916       .  S
C1450      H1453   1.083       .  S
C1452      C1454   1.402       .  A
C1452      C1458   1.409       .  A
C1454      C1455   1.402       .  A
C1454      H1459   1.083       .  S
C1455      C1456   1.412       .  A
C1455     Br1463   1.920       .  S
C1456      C1457   1.405       .  A
C1457      C1458   1.405       .  A
C1457      H1460   1.084       .  S
C1458     Br1464   1.917       .  S
C1465      C1466   1.413       .  A
C1465      C1470   1.406       .  A
C1466      C1467   1.399       .  A
C1466     Br1482   1.922       .  S
C1467      C1468   1.403       .  A
C1467      H1471   1.084       .  S
C1468      C1472   1.483       .  S
C1468      C1469   1.408       .  A
C1469      C1470   1.401       .  A
C1469     Br1481   1.918       .  S
C1470      H1473   1.083       .  S
C1472      C1474   1.401       .  A
C1472      C1478   1.408       .  A
C1474      C1475   1.397       .  A
C1474      H1479   1.084       .  S
C1475      C1476   1.418       .  A
C1475     Br1483   1.924       .  S
C1476      C1477   1.408       .  A
C1477      C1478   1.403       .  A
C1477      H1480   1.083   1_565  S
C1478     Br1484   1.917       .  S
C1485      C1486   1.413       .  A
C1485      C1490   1.407       .  A
C1486      C1487   1.395       .  A
C1486     Br1502   1.921       .  S
C1487      C1488   1.399       .  A
C1487      H1491   1.084       .  S
C1488      C1492   1.495       .  S
C1488      C1489   1.416       .  A
C1489      C1490   1.415       .  A
C1489     Br1501   1.917       .  S
C1490      H1493   1.083       .  S
C1492      C1494   1.406       .  A
C1492      C1498   1.413       .  A
C1494      C1495   1.403       .  A
C1494      H1499   1.083       .  S
C1495      C1496   1.411       .  A
C1495     Br1503   1.920       .  S
C1496      C1497   1.406       .  A
C1497      C1498   1.407       .  A
C1497      H1500   1.083       .  S
C1498     Br1504   1.918       .  S
C1505      C1506   1.418   1_556  A
C1505      C1510   1.411       .  A
C1506      C1507   1.408       .  A
C1506     Br1522   1.920       .  S
C1507      C1508   1.405       .  A
C1507      H1511   1.083       .  S
C1508      C1512   1.484       .  S
C1508      C1509   1.404   1_554  A
C1509      C1510   1.394       .  A
C1509     Br1521   1.922       .  S
C1510      H1513   1.083       .  S
C1512      C1514   1.404   1_554  A
C1512      C1518   1.405       .  A
C1514      C1515   1.405       .  A
C1514      H1519   1.084       .  S
C1515      C1516   1.418   1_556  A
C1515     Br1523   1.920       .  S
C1516      C1517   1.411       .  A
C1517      C1518   1.397       .  A
C1517      H1520   1.083       .  S
C1518     Br1524   1.920       .  S
C1525      C1526   1.412       .  A
C1525      C1530   1.405       .  A
C1526      C1527   1.393       .  A
C1526     Br1542   1.924       .  S
C1527      C1528   1.401       .  A
C1527      H1531   1.084       .  S
C1528      C1532   1.476       .  S
C1528      C1529   1.409       .  A
C1529      C1530   1.400       .  A
C1529     Br1541   1.918       .  S
C1530      H1533   1.083       .  S
C1532      C1534   1.400       .  A
C1532      C1538   1.405       .  A
C1534      C1535   1.394       .  A
C1534      H1539   1.084       .  S
C1535      C1536   1.419       .  A
C1535     Br1543   1.926       .  S
C1536      C1537   1.410       .  A
C1537      C1538   1.399       .  A
C1537      H1540   1.083       .  S
C1538     Br1544   1.918       .  S
C1545      C1546   1.412       .  A
C1545      C1550   1.408       .  A
C1546      C1547   1.400       .  A
C1546     Br1562   1.910       .  S
C1547      C1548   1.400       .  A
C1547      H1551   1.084       .  S
C1548      C1552   1.493       .  S
C1548      C1549   1.412       .  A
C1549      C1550   1.411       .  A
C1549     Br1561   1.916       .  S
C1550      H1553   1.083       .  S
C1552      C1554   1.407       .  A
C1552      C1558   1.410       .  A
C1554      C1555   1.409       .  A
C1554      H1559   1.083       .  S
C1555      C1556   1.412       .  A
C1555     Br1563   1.918       .  S
C1556      C1557   1.405       .  A
C1557      C1558   1.402       .  A
C1557      H1560   1.084       .  S
C1558     Br1564   1.919       .  S
C1565      C1566   1.423   1_556  A
C1565      C1570   1.412       .  A
C1566      C1567   1.399   1_554  A
C1566     Br1582   1.925       .  S
C1567      C1568   1.398       .  A
C1567      H1571   1.084   1_556  S
C1568      C1572   1.485       .  S
C1568      C1569   1.406       .  A
C1569      C1570   1.406       .  A
C1569     Br1581   1.916       .  S
C1570      H1573   1.083       .  S
C1572      C1574   1.399       .  A
C1572      C1578   1.409   1_556  A
C1574      C1575   1.400       .  A
C1574      H1579   1.084       .  S
C1575      C1576   1.416       .  A
C1575     Br1583   1.914       .  S
C1576      C1577   1.407   1_556  A
C1577      C1578   1.407       .  A
C1577      H1580   1.083       .  S
C1578     Br1584   1.916       .  S
C1585      C1586   1.415       .  A
C1585      C1590   1.408       .  A
C1586      C1587   1.395       .  A
C1586     Br1602   1.924   1_554  S
C1587      C1588   1.401       .  A
C1587      H1591   1.084       .  S
C1588      C1592   1.475       .  S
C1588      C1589   1.405       .  A
C1589      C1590   1.398       .  A
C1589     Br1601   1.917       .  S
C1590      H1593   1.083       .  S
C1592      C1594   1.402       .  A
C1592      C1598   1.406       .  A
C1594      C1595   1.398       .  A
C1594      H1599   1.084       .  S
C1595      C1596   1.413       .  A
C1595     Br1603   1.923   1_554  S
C1596      C1597   1.406       .  A
C1597      C1598   1.397       .  A
C1597      H1600   1.083       .  S
C1598     Br1604   1.918       .  S
C1605      C1606   1.406       .  A
C1605      C1610   1.401       .  A
C1606      C1607   1.398       .  A
C1606     Br1622   1.920       .  S
C1607      C1608   1.402       .  A
C1607      H1611   1.084       .  S
C1608      C1612   1.472       .  S
C1608      C1609   1.407       .  A
C1609      C1610   1.397       .  A
C1609     Br1621   1.919       .  S
C1610      H1613   1.082       .  S
C1612      C1614   1.405       .  A
C1612      C1618   1.404       .  A
C1614      C1615   1.401       .  A
C1614      H1619   1.084       .  S
C1615      C1616   1.406       .  A
C1615     Br1623   1.919       .  S
C1616      C1617   1.403       .  A
C1617      C1618   1.394       .  A
C1617      H1620   1.083       .  S
C1618     Br1624   1.919       .  S
C1625      C1626   1.421       .  A
C1625      C1630   1.412       .  A
C1626      C1627   1.400       .  A
C1626     Br1642   1.922       .  S
C1627      C1628   1.399       .  A
C1627      H1631   1.084       .  S
C1628      C1632   1.490   1_565  S
C1628      C1629   1.409       .  A
C1629      C1630   1.410       .  A
C1629     Br1641   1.916   1_565  S
C1630      H1633   1.083       .  S
C1632      C1634   1.401       .  A
C1632      C1638   1.410       .  A
C1634      C1635   1.400       .  A
C1634      H1639   1.084   1_545  S
C1635      C1636   1.415       .  A
C1635     Br1643   1.919       .  S
C1636      C1637   1.408       .  A
C1637      C1638   1.409       .  A
C1637      H1640   1.081       .  S
C1638     Br1644   1.917       .  S
C1645      C1646   1.418       .  A
C1645      C1650   1.406       .  A
C1646      C1647   1.401       .  A
C1646     Br1662   1.922       .  S
C1647      C1648   1.400       .  A
C1647      H1651   1.083       .  S
C1648      C1652   1.469       .  S
C1648      C1649   1.404       .  A
C1649      C1650   1.392       .  A
C1649     Br1661   1.921       .  S
C1650      H1653   1.082       .  S
C1652      C1654   1.399       .  A
C1652      C1658   1.404       .  A
C1654      C1655   1.399       .  A
C1654      H1659   1.084       .  S
C1655      C1656   1.418       .  A
C1655     Br1663   1.922       .  S
C1656      C1657   1.408       .  A
C1657      C1658   1.393       .  A
C1657      H1660   1.083       .  S
C1658     Br1664   1.921       .  S
C1665      C1666   1.414       .  A
C1665      C1670   1.405       .  A
C1666      C1667   1.398       .  A
C1666     Br1682   1.919       .  S
C1667      C1668   1.401       .  A
C1667      H1671   1.084       .  S
C1668      C1672   1.487       .  S
C1668      C1669   1.411       .  A
C1669      C1670   1.407       .  A
C1669     Br1681   1.917       .  S
C1670      H1673   1.083       .  S
C1672      C1674   1.399       .  A
C1672      C1678   1.407       .  A
C1674      C1675   1.399       .  A
C1674      H1679   1.084       .  S
C1675      C1676   1.424       .  A
C1675     Br1683   1.925       .  S
C1676      C1677   1.412       .  A
C1677      C1678   1.406       .  A
C1677      H1680   1.083       .  S
C1678     Br1684   1.917       .  S
C1685      C1686   1.413       .  A
C1685      C1690   1.407       .  A
C1686      C1687   1.392       .  A
C1686     Br1702   1.916       .  S
C1687      C1688   1.402       .  A
C1687      H1691   1.083       .  S
C1688      C1692   1.488       .  S
C1688      C1689   1.412       .  A
C1689      C1690   1.404       .  A
C1689     Br1701   1.919       .  S
C1690      H1693   1.083       .  S
C1692      C1694   1.403       .  A
C1692      C1698   1.411       .  A
C1694      C1695   1.396       .  A
C1694      H1699   1.083       .  S
C1695      C1696   1.417       .  A
C1695     Br1703   1.925       .  S
C1696      C1697   1.409       .  A
C1697      C1698   1.400       .  A
C1697      H1700   1.083       .  S
C1698     Br1704   1.921       .  S
C1705      C1706   1.409       .  A
C1705      C1710   1.407       .  A
C1706      C1707   1.402       .  A
C1706     Br1722   1.919       .  S
C1707      C1708   1.405       .  A
C1707      H1711   1.083       .  S
C1708      C1712   1.473       .  S
C1708      C1709   1.402       .  A
C1709      C1710   1.394       .  A
C1709     Br1721   1.919       .  S
C1710      H1713   1.084       .  S
C1712      C1714   1.403       .  A
C1712      C1718   1.405       .  A
C1714      C1715   1.398       .  A
C1714      H1719   1.084       .  S
C1715      C1716   1.406       .  A
C1715     Br1723   1.920       .  S
C1716      C1717   1.402       .  A
C1717      C1718   1.399       .  A
C1717      H1720   1.083       .  S
C1718     Br1724   1.917       .  S
C1725      C1726   1.421       .  A
C1725      C1730   1.411       .  A
C1726      C1727   1.399       .  A
C1726     Br1742   1.925       .  S
C1727      C1728   1.400       .  A
C1727      H1731   1.084       .  S
C1728      C1732   1.483       .  S
C1728      C1729   1.405       .  A
C1729      C1730   1.405       .  A
C1729     Br1741   1.916       .  S
C1730      H1733   1.083       .  S
C1732      C1734   1.401       .  A
C1732      C1738   1.410       .  A
C1734      C1735   1.399       .  A
C1734      H1739   1.084       .  S
C1735      C1736   1.411       .  A
C1735     Br1743   1.920       .  S
C1736      C1737   1.404       .  A
C1737      C1738   1.404       .  A
C1737      H1740   1.084       .  S
C1738     Br1744   1.917       .  S
C1745      C1746   1.420       .  A
C1745      C1750   1.408       .  A
C1746      C1747   1.397       .  A
C1746     Br1762   1.926       .  S
C1747      C1748   1.401       .  A
C1747      H1751   1.084       .  S
C1748      C1752   1.477       .  S
C1748      C1749   1.406       .  A
C1749      C1750   1.396       .  A
C1749     Br1761   1.918       .  S
C1750      H1753   1.083       .  S
C1752      C1754   1.399       .  A
C1752      C1758   1.405       .  A
C1754      C1755   1.391       .  A
C1754      H1759   1.084       .  S
C1755      C1756   1.421       .  A
C1755     Br1763   1.927       .  S
C1756      C1757   1.412       .  A
C1757      C1758   1.402       .  A
C1757      H1760   1.083       .  S
C1758     Br1764   1.918       .  S
C1765      C1766   1.413       .  A
C1765      C1770   1.401       .  A
C1766      C1767   1.404       .  A
C1766     Br1782   1.920       .  S
C1767      C1768   1.402       .  A
C1767      H1771   1.083       .  S
C1768      C1772   1.469       .  S
C1768      C1769   1.407       .  A
C1769      C1770   1.388       .  A
C1769     Br1781   1.923       .  S
C1770      H1773   1.084       .  S
C1772      C1774   1.402       .  A
C1772      C1778   1.405       .  A
C1774      C1775   1.397       .  A
C1774      H1779   1.084       .  S
C1775      C1776   1.410       .  A
C1775     Br1783   1.922       .  S
C1776      C1777   1.404       .  A
C1777      C1778   1.395       .  A
C1777      H1780   1.084       .  S
C1778     Br1784   1.918       .  S
C1785      C1786   1.406       .  A
C1785      C1790   1.405       .  A
C1786      C1787   1.399       .  A
C1786     Br1802   1.918       .  S
C1787      C1788   1.404       .  A
C1787      H1791   1.084       .  S
C1788      C1792   1.476       .  S
C1788      C1789   1.405       .  A
C1789      C1790   1.401       .  A
C1789     Br1801   1.917       .  S
C1790      H1793   1.084       .  S
C1792      C1794   1.403       .  A
C1792      C1798   1.406       .  A
C1794      C1795   1.398       .  A
C1794      H1799   1.084       .  S
C1795      C1796   1.408       .  A
C1795     Br1803   1.920       .  S
C1796      C1797   1.404       .  A
C1797      C1798   1.400       .  A
C1797      H1800   1.084       .  S
C1798     Br1804   1.917       .  S
C1805      C1806   1.414       .  A
C1805      C1810   1.407       .  A
C1806      C1807   1.407   1_565  A
C1806     Br1822   1.918       .  S
C1807      C1808   1.405   1_545  A
C1807      H1811   1.083       .  S
C1808      C1812   1.492   1_565  S
C1808      C1809   1.411       .  A
C1809      C1810   1.401       .  A
C1809     Br1821   1.919       .  S
C1810      H1813   1.084       .  S
C1812      C1814   1.404       .  A
C1812      C1818   1.410       .  A
C1814      C1815   1.405       .  A
C1814      H1819   1.083       .  S
C1815      C1816   1.414       .  A
C1815     Br1823   1.917       .  S
C1816      C1817   1.408       .  A
C1817      C1818   1.404       .  A
C1817      H1820   1.083       .  S
C1818     Br1824   1.919       .  S
C1825      C1826   1.411       .  A
C1825      C1830   1.409       .  A
C1826      C1827   1.402       .  A
C1826     Br1842   1.919       .  S
C1827      C1828   1.405       .  A
C1827      H1831   1.084       .  S
C1828      C1832   1.471       .  S
C1828      C1829   1.401       .  A
C1829      C1830   1.392       .  A
C1829     Br1841   1.920       .  S
C1830      H1833   1.084       .  S
C1832      C1834   1.402       .  A
C1832      C1838   1.406       .  A
C1834      C1835   1.394       .  A
C1834      H1839   1.084       .  S
C1835      C1836   1.404       .  A
C1835     Br1843   1.920       .  S
C1836      C1837   1.403       .  A
C1837      C1838   1.400       .  A
C1837      H1840   1.084       .  S
C1838     Br1844   1.917       .  S
C1845      C1846   1.414       .  A
C1845      C1850   1.409       .  A
C1846      C1847   1.408   1_455  A
C1846     Br1862   1.918       .  S
C1847      C1848   1.407       .  A
C1847      H1851   1.083       .  S
C1848      C1852   1.486       .  S
C1848      C1849   1.405   1_655  A
C1849      C1850   1.395       .  A
C1849     Br1861   1.921   1_455  S
C1850      H1853   1.084       .  S
C1852      C1854   1.403       .  A
C1852      C1858   1.406       .  A
C1854      C1855   1.405       .  A
C1854      H1859   1.083       .  S
C1855      C1856   1.419       .  A
C1855     Br1863   1.920       .  S
C1856      C1857   1.411       .  A
C1857      C1858   1.399       .  A
C1857      H1860   1.083       .  S
C1858     Br1864   1.920   1_655  S
C1865      C1866   1.420       .  A
C1865      C1870   1.409       .  A
C1866      C1867   1.393       .  A
C1866     Br1882   1.926       .  S
C1867      C1868   1.400       .  A
C1867      H1871   1.084       .  S
C1868      C1872   1.479       .  S
C1868      C1869   1.407       .  A
C1869      C1870   1.399       .  A
C1869     Br1881   1.918       .  S
C1870      H1873   1.083       .  S
C1872      C1874   1.401       .  A
C1872      C1878   1.407       .  A
C1874      C1875   1.396       .  A
C1874      H1879   1.084       .  S
C1875      C1876   1.418       .  A
C1875     Br1883   1.925       .  S
C1876      C1877   1.408       .  A
C1877      C1878   1.398       .  A
C1877      H1880   1.083       .  S
C1878     Br1884   1.919       .  S
C1885      C1886   1.419       .  A
C1885      C1890   1.409       .  A
C1886      C1887   1.399       .  A
C1886     Br1902   1.924       .  S
C1887      C1888   1.400       .  A
C1887      H1891   1.084       .  S
C1888      C1892   1.489       .  S
C1888      C1889   1.410       .  A
C1889      C1890   1.407       .  A
C1889     Br1901   1.917       .  S
C1890      H1893   1.083       .  S
C1892      C1894   1.401       .  A
C1892      C1898   1.410       .  A
C1894      C1895   1.400       .  A
C1894      H1899   1.084       .  S
C1895      C1896   1.418       .  A
C1895     Br1903   1.920       .  S
C1896      C1897   1.407       .  A
C1897      C1898   1.405       .  A
C1897      H1900   1.083       .  S
C1898     Br1904   1.917       .  S
C1905      C1906   1.414       .  A
C1905      C1910   1.401       .  A
C1906      C1907   1.399       .  A
C1906     Br1922   1.921       .  S
C1907      C1908   1.400       .  A
C1907      H1911   1.084       .  S
C1908      C1912   1.476       .  S
C1908      C1909   1.410       .  A
C1909      C1910   1.398       .  A
C1909     Br1921   1.920       .  S
C1910      H1913   1.084       .  S
C1912      C1914   1.398       .  A
C1912      C1918   1.411       .  A
C1914      C1915   1.392       .  A
C1914      H1919   1.084       .  S
C1915      C1916   1.410       .  A
C1915     Br1923   1.921       .  S
C1916      C1917   1.402       .  A
C1917      C1918   1.404       .  A
C1917      H1920   1.083       .  S
C1918     Br1924   1.917       .  S
C1925      C1926   1.413       .  A
C1925      C1930   1.407       .  A
C1926      C1927   1.409       .  A
C1926     Br1942   1.918       .  S
C1927      C1928   1.407       .  A
C1927      H1931   1.083       .  S
C1928      C1932   1.486       .  S
C1928      C1929   1.407       .  A
C1929      C1930   1.394       .  A
C1929     Br1941   1.922       .  S
C1930      H1933   1.084       .  S
C1932      C1934   1.405       .  A
C1932      C1938   1.408       .  A
C1934      C1935   1.403       .  A
C1934      H1939   1.083       .  S
C1935      C1936   1.411   1_455  A
C1935     Br1943   1.918   1_455  S
C1936      C1937   1.405   1_655  A
C1937      C1938   1.400       .  A
C1937      H1940   1.084   1_455  S
C1938     Br1944   1.919       .  S
C1945      C1946   1.416       .  A
C1945      C1950   1.406       .  A
C1946      C1947   1.409       .  A
C1946     Br1962   1.919       .  S
C1947      C1948   1.405       .  A
C1947      H1951   1.083       .  S
C1948      C1952   1.491       .  S
C1948      C1949   1.409       .  A
C1949      C1950   1.399       .  A
C1949     Br1961   1.921       .  S
C1950      H1953   1.081       .  S
C1952      C1954   1.404       .  A
C1952      C1958   1.410       .  A
C1954      C1955   1.404       .  A
C1954      H1959   1.083       .  S
C1955      C1956   1.413       .  A
C1955     Br1963   1.920       .  S
C1956      C1957   1.407       .  A
C1957      C1958   1.405       .  A
C1957      H1960   1.082       .  S
C1958     Br1964   1.918       .  S
C1965      C1966   1.410       .  A
C1965      C1970   1.406       .  A
C1966      C1967   1.392       .  A
C1966     Br1982   1.919       .  S
C1967      C1968   1.403       .  A
C1967      H1971   1.084       .  S
C1968      C1972   1.478       .  S
C1968      C1969   1.408       .  A
C1969      C1970   1.399       .  A
C1969     Br1981   1.919       .  S
C1970      H1973   1.083       .  S
C1972      C1974   1.400       .  A
C1972      C1978   1.406       .  A
C1974      C1975   1.394       .  A
C1974      H1979   1.084       .  S
C1975      C1976   1.421       .  A
C1975     Br1983   1.927       .  S
C1976      C1977   1.408       .  A
C1977      C1978   1.398       .  A
C1977      H1980   1.083       .  S
C1978     Br1984   1.918       .  S
C1985      C1986   1.410       .  A
C1985      C1990   1.410       .  A
C1986      C1987   1.406       .  A
C1986     Br2002   1.918       .  S
C1987      C1988   1.406       .  A
C1987      H1991   1.083       .  S
C1988      C1992   1.477       .  S
C1988      C1989   1.402       .  A
C1989      C1990   1.394       .  A
C1989     Br2001   1.920       .  S
C1990      H1993   1.084       .  S
C1992      C1994   1.402       .  A
C1992      C1998   1.407       .  A
C1994      C1995   1.397       .  A
C1994      H1999   1.084       .  S
C1995      C1996   1.408       .  A
C1995     Br2003   1.921       .  S
C1996      C1997   1.405       .  A
C1997      C1998   1.402       .  A
C1997      H2000   1.084       .  S
C1998     Br2004   1.916       .  S
C2005      C2006   1.411       .  A
C2005      C2010   1.401       .  A
C2006      C2007   1.406       .  A
C2006     Br2022   1.916       .  S
C2007      C2008   1.404       .  A
C2007      H2011   1.083       .  S
C2008      C2012   1.482       .  S
C2008      C2009   1.409       .  A
C2009      C2010   1.397       .  A
C2009     Br2021   1.921       .  S
C2010      H2013   1.084       .  S
C2012      C2014   1.403       .  A
C2012      C2018   1.407       .  A
C2014      C2015   1.402       .  A
C2014      H2019   1.083       .  S
C2015      C2016   1.410       .  A
C2015     Br2023   1.918       .  S
C2016      C2017   1.404       .  A
C2017      C2018   1.401       .  A
C2017      H2020   1.082       .  S
C2018     Br2024   1.917       .  S
C2025      C2026   1.420       .  A
C2025      C2030   1.412       .  A
C2026      C2027   1.408       .  A
C2026     Br2042   1.920       .  S
C2027      C2028   1.406       .  A
C2027      H2031   1.083   1_545  S
C2028      C2032   1.496   1_545  S
C2028      C2029   1.409       .  A
C2029      C2030   1.400       .  A
C2029     Br2041   1.922       .  S
C2030      H2033   1.083       .  S
C2032      C2034   1.409       .  A
C2032      C2038   1.410       .  A
C2034      C2035   1.408       .  A
C2034      H2039   1.083       .  S
C2035      C2036   1.412       .  A
C2035     Br2043   1.919       .  S
C2036      C2037   1.407       .  A
C2037      C2038   1.400       .  A
C2037      H2040   1.084       .  S
C2038     Br2044   1.920       .  S
C2045      C2046   1.409       .  A
C2045      C2050   1.402       .  A
C2046      C2047   1.408       .  A
C2046     Br2062   1.916       .  S
C2047      C2048   1.407       .  A
C2047      H2051   1.083       .  S
C2048      C2052   1.484       .  S
C2048      C2049   1.407       .  A
C2049      C2050   1.395       .  A
C2049     Br2061   1.920       .  S
C2050      H2053   1.083       .  S
C2052      C2054   1.401       .  A
C2052      C2058   1.405       .  A
C2054      C2055   1.400       .  A
C2054      H2059   1.084       .  S
C2055      C2056   1.417       .  A
C2055     Br2063   1.919       .  S
C2056      C2057   1.410       .  A
C2057      C2058   1.404       .  A
C2057      H2060   1.083       .  S
C2058     Br2064   1.916       .  S
C2065      C2066   1.416       .  A
C2065      C2070   1.408       .  A
C2066      C2067   1.399       .  A
C2066     Br2082   1.923       .  S
C2067      C2068   1.402       .  A
C2067      H2071   1.084       .  S
C2068      C2072   1.480       .  S
C2068      C2069   1.407       .  A
C2069      C2070   1.399       .  A
C2069     Br2081   1.918       .  S
C2070      H2073   1.083       .  S
C2072      C2074   1.402       .  A
C2072      C2078   1.409       .  A
C2074      C2075   1.396       .  A
C2074      H2079   1.084       .  S
C2075      C2076   1.411       .  A
C2075     Br2083   1.919       .  S
C2076      C2077   1.406       .  A
C2077      C2078   1.402       .  A
C2077      H2080   1.083       .  S
C2078     Br2084   1.918       .  S
C2085      C2086   1.420       .  A
C2085      C2090   1.406       .  A
C2086      C2087   1.399       .  A
C2086     Br2102   1.922       .  S
C2087      C2088   1.399       .  A
C2087      H2091   1.084       .  S
C2088      C2092   1.470       .  S
C2088      C2089   1.407       .  A
C2089      C2090   1.390       .  A
C2089     Br2101   1.924       .  S
C2090      H2093   1.083       .  S
C2092      C2094   1.400       .  A
C2092      C2098   1.406       .  A
C2094      C2095   1.398       .  A
C2094      H2099   1.084       .  S
C2095      C2096   1.418       .  A
C2095     Br2103   1.922       .  S
C2096      C2097   1.405       .  A
C2097      C2098   1.392       .  A
C2097      H2100   1.084       .  S
C2098     Br2104   1.921       .  S
C2105      C2106   1.414       .  A
C2105      C2110   1.408       .  A
C2106      C2107   1.411       .  A
C2106     Br2122   1.916       .  S
C2107      C2108   1.406       .  A
C2107      H2111   1.083       .  S
C2108      C2112   1.486       .  S
C2108      C2109   1.406       .  A
C2109      C2110   1.395       .  A
C2109     Br2121   1.921       .  S
C2110      H2113   1.084       .  S
C2112      C2114   1.405       .  A
C2112      C2118   1.407       .  A
C2114      C2115   1.405       .  A
C2114      H2119   1.083       .  S
C2115      C2116   1.411       .  A
C2115     Br2123   1.919       .  S
C2116      C2117   1.407       .  A
C2117      C2118   1.402       .  A
C2117      H2120   1.084       .  S
C2118     Br2124   1.918       .  S
C2125      C2126   1.417       .  A
C2125      C2130   1.406       .  A
C2126      C2127   1.401       .  A
C2126     Br2142   1.922       .  S
C2127      C2128   1.401       .  A
C2127      H2131   1.084       .  S
C2128      C2132   1.488       .  S
C2128      C2129   1.411       .  A
C2129      C2130   1.405       .  A
C2129     Br2141   1.918       .  S
C2130      H2133   1.083       .  S
C2132      C2134   1.400       .  A
C2132      C2138   1.410       .  A
C2134      C2135   1.398       .  A
C2134      H2139   1.084       .  S
C2135      C2136   1.419       .  A
C2135     Br2143   1.922       .  S
C2136      C2137   1.409       .  A
C2137      C2138   1.407       .  A
C2137      H2140   1.083       .  S
C2138     Br2144   1.917       .  S
C2145      C2146   1.411       .  A
C2145      C2150   1.407       .  A
C2146      C2147   1.395       .  A
C2146     Br2162   1.921       .  S
C2147      C2148   1.403       .  A
C2147      H2151   1.072       .  S
C2148      C2152   1.478       .  S
C2148      C2149   1.408       .  A
C2149      C2150   1.401       .  A
C2149     Br2161   1.919       .  S
C2150      H2153   1.071       .  S
C2152      C2154   1.403       .  A
C2152      C2158   1.407       .  A
C2154      C2155   1.397       .  A
C2154      H2159   1.084       .  S
C2155      C2156   1.412       .  A
C2155     Br2163   1.923       .  S
C2156      C2157   1.405       .  A
C2157      C2158   1.396       .  A
C2157      H2160   1.085       .  S
C2158     Br2164   1.919       .  S
C2165      C2166   1.415       .  A
C2165      C2170   1.405       .  A
C2166      C2167   1.398       .  A
C2166     Br2182   1.920       .  S
C2167      C2168   1.400       .  A
C2167      H2171   1.084   1_565  S
C2168      C2172   1.487   1_565  S
C2168      C2169   1.412       .  A
C2169      C2170   1.406       .  A
C2169     Br2181   1.918       .  S
C2170      H2173   1.083       .  S
C2172      C2174   1.398       .  A
C2172      C2178   1.409       .  A
C2174      C2175   1.397       .  A
C2174      H2179   1.084       .  S
C2175      C2176   1.425       .  A
C2175     Br2183   1.926       .  S
C2176      C2177   1.411       .  A
C2177      C2178   1.405       .  A
C2177      H2180   1.083       .  S
C2178     Br2184   1.917   1_545  S
C2185      C2186   1.413       .  A
C2185      C2190   1.405       .  A
C2186      C2187   1.408       .  A
C2186     Br2202   1.918       .  S
C2187      C2188   1.405       .  A
C2187      H2191   1.083       .  S
C2188      C2192   1.484       .  S
C2188      C2189   1.407       .  A
C2189      C2190   1.397       .  A
C2189     Br2201   1.920       .  S
C2190      H2193   1.084       .  S
C2192      C2194   1.401       .  A
C2192      C2198   1.408       .  A
C2194      C2195   1.398       .  A
C2194      H2199   1.084       .  S
C2195      C2196   1.413       .  A
C2195     Br2203   1.921       .  S
C2196      C2197   1.407       .  A
C2197      C2198   1.406       .  A
C2197      H2200   1.084       .  S
C2198     Br2204   1.916       .  S
C2205      C2206   1.410       .  A
C2205      C2210   1.404       .  A
C2206      C2207   1.401       .  A
C2206     Br2222   1.920       .  S
C2207      C2208   1.403       .  A
C2207      H2211   1.083       .  S
C2208      C2212   1.470       .  S
C2208      C2209   1.402       .  A
C2209      C2210   1.393       .  A
C2209     Br2221   1.919       .  S
C2210      H2213   1.082       .  S
C2212      C2214   1.401       .  A
C2212      C2218   1.403       .  A
C2214      C2215   1.397       .  A
C2214      H2219   1.084       .  S
C2215      C2216   1.412       .  A
C2215     Br2223   1.922       .  S
C2216      C2217   1.408       .  A
C2217      C2218   1.397       .  A
C2217      H2220   1.084       .  S
C2218     Br2224   1.917       .  S
C2225      C2226   1.411       .  A
C2225      C2230   1.404       .  A
C2226      C2227   1.402       .  A
C2226     Br2242   1.919       .  S
C2227      C2228   1.402       .  A
C2227      H2231   1.083       .  S
C2228      C2232   1.477       .  S
C2228      C2229   1.406       .  A
C2229      C2230   1.398       .  A
C2229     Br2241   1.919       .  S
C2230      H2233   1.084       .  S
C2232      C2234   1.400       .  A
C2232      C2238   1.403       .  A
C2234      C2235   1.405       .  A
C2234      H2239   1.083       .  S
C2235      C2236   1.422       .  A
C2235     Br2243   1.921       .  S
C2236      C2237   1.410       .  A
C2237      C2238   1.393       .  A
C2237      H2240   1.083       .  S
C2238     Br2244   1.917       .  S
C2245      C2246   1.408       .  A
C2245      C2250   1.403       .  A
C2246      C2247   1.400       .  A
C2246     Br2262   1.916       .  S
C2247      C2248   1.402       .  A
C2247      H2251   1.084       .  S
C2248      C2252   1.479       .  S
C2248      C2249   1.409       .  A
C2249      C2250   1.401       .  A
C2249     Br2261   1.918       .  S
C2250      H2253   1.084       .  S
C2252      C2254   1.401       .  A
C2252      C2258   1.407       .  A
C2254      C2255   1.397       .  A
C2254      H2259   1.084       .  S
C2255      C2256   1.412       .  A
C2255     Br2263   1.922       .  S
C2256      C2257   1.407       .  A
C2257      C2258   1.405       .  A
C2257      H2260   1.083       .  S
C2258     Br2264   1.916       .  S
C2265      C2266   1.412       .  A
C2265      C2270   1.404       .  A
C2266      C2267   1.393       .  A
C2266     Br2282   1.924       .  S
C2267      C2268   1.402       .  A
C2267      H2271   1.083       .  S
C2268      C2272   1.476       .  S
C2268      C2269   1.408       .  A
C2269      C2270   1.397       .  A
C2269     Br2281   1.919       .  S
C2270      H2273   1.083       .  S
C2272      C2274   1.401       .  A
C2272      C2278   1.406       .  A
C2274      C2275   1.393       .  A
C2274      H2279   1.084       .  S
C2275      C2276   1.418       .  A
C2275     Br2283   1.926       .  S
C2276      C2277   1.409       .  A
C2277      C2278   1.397       .  A
C2277      H2280   1.083       .  S
C2278     Br2284   1.919       .  S
C2285      C2286   1.412       .  A
C2285      C2290   1.408       .  A
C2286      C2287   1.391       .  A
C2286     Br2302   1.924       .  S
C2287      C2288   1.398       .  A
C2287      H2291   1.084       .  S
C2288      C2292   1.474       .  S
C2288      C2289   1.406       .  A
C2289      C2290   1.405       .  A
C2289     Br2301   1.916       .  S
C2290      H2293   1.083       .  S
C2292      C2294   1.404       .  A
C2292      C2298   1.407       .  A
C2294      C2295   1.400       .  A
C2294      H2299   1.083       .  S
C2295      C2296   1.406       .  A
C2295     Br2303   1.918       .  S
C2296      C2297   1.402       .  A
C2297      C2298   1.398       .  A
C2297      H2300   1.084       .  S
C2298     Br2304   1.920       .  S
C2305      C2306   1.406       .  A
C2305      C2310   1.402       .  A
C2306      C2307   1.399       .  A
C2306     Br2322   1.915       .  S
C2307      C2308   1.403       .  A
C2307      H2311   1.084       .  S
C2308      C2312   1.470       .  S
C2308      C2309   1.403       .  A
C2309      C2310   1.395       .  A
C2309     Br2321   1.918       .  S
C2310      H2313   1.080       .  S
C2312      C2314   1.403       .  A
C2312      C2318   1.403       .  A
C2314      C2315   1.400       .  A
C2314      H2319   1.083       .  S
C2315      C2316   1.408       .  A
C2315     Br2323   1.920       .  S
C2316      C2317   1.404       .  A
C2317      C2318   1.394       .  A
C2317      H2320   1.083       .  S
C2318     Br2324   1.918       .  S
C2325      C2326   1.406       .  A
C2325      C2330   1.402       .  A
C2326      C2327   1.398       .  A
C2326     Br2342   1.920       .  S
C2327      C2328   1.402       .  A
C2327      H2331   1.084       .  S
C2328      C2332   1.472       .  S
C2328      C2329   1.406       .  A
C2329      C2330   1.398       .  A
C2329     Br2341   1.918       .  S
C2330      H2333   1.084       .  S
C2332      C2334   1.405       .  A
C2332      C2338   1.403       .  A
C2334      C2335   1.401       .  A
C2334      H2339   1.083       .  S
C2335      C2336   1.406       .  A
C2335     Br2343   1.919       .  S
C2336      C2337   1.404       .  A
C2337      C2338   1.394       .  A
C2337      H2340   1.084       .  S
C2338     Br2344   1.919       .  S
C2345      C2346   1.421       .  A
C2345      C2350   1.409       .  A
C2346      C2347   1.398       .  A
C2346     Br2362   1.925       .  S
C2347      C2348   1.400       .  A
C2347      H2351   1.084       .  S
C2348      C2352   1.485       .  S
C2348      C2349   1.409       .  A
C2349      C2350   1.402       .  A
C2349     Br2361   1.919   1_554  S
C2350      H2353   1.083   1_554  S
C2352      C2354   1.400   1_554  A
C2352      C2358   1.413       .  A
C2354      C2355   1.394       .  A
C2354      H2359   1.084       .  S
C2355      C2356   1.411   1_556  A
C2355     Br2363   1.916       .  S
C2356      C2357   1.404       .  A
C2357      C2358   1.406       .  A
C2357      H2360   1.083       .  S
C2358     Br2364   1.918       .  S
C2365      C2366   1.416       .  A
C2365      C2370   1.407       .  A
C2366      C2367   1.391       .  A
C2366     Br2382   1.925   1_554  S
C2367      C2368   1.400       .  A
C2367      H2371   1.084       .  S
C2368      C2372   1.478       .  S
C2368      C2369   1.408       .  A
C2369      C2370   1.401       .  A
C2369     Br2381   1.918       .  S
C2370      H2373   1.083       .  S
C2372      C2374   1.403       .  A
C2372      C2378   1.408       .  A
C2374      C2375   1.398       .  A
C2374      H2379   1.083       .  S
C2375      C2376   1.413       .  A
C2375     Br2383   1.922       .  S
C2376      C2377   1.407       .  A
C2377      C2378   1.395       .  A
C2377      H2380   1.083       .  S
C2378     Br2384   1.921       .  S
C2385      C2386   1.417       .  A
C2385      C2390   1.406   1_554  A
C2386      C2387   1.398       .  A
C2386     Br2402   1.923       .  S
C2387      C2388   1.402   1_554  A
C2387      H2391   1.083       .  S
C2388      C2392   1.490       .  S
C2388      C2389   1.412       .  A
C2389      C2390   1.405       .  A
C2389     Br2401   1.918       .  S
C2390      H2393   1.080       .  S
C2392      C2394   1.401       .  A
C2392      C2398   1.413   1_556  A
C2394      C2395   1.398       .  A
C2394      H2399   1.083       .  S
C2395      C2396   1.415       .  A
C2395     Br2403   1.923       .  S
C2396      C2397   1.404   1_556  A
C2397      C2398   1.406       .  A
C2397      H2400   1.083       .  S
C2398     Br2404   1.918       .  S
C2405      C2406   1.412       .  A
C2405      C2410   1.407       .  A
C2406      C2407   1.406       .  A
C2406     Br2422   1.917       .  S
C2407      C2408   1.405       .  A
C2407      H2411   1.083       .  S
C2408      C2412   1.484       .  S
C2408      C2409   1.407       .  A
C2409      C2410   1.397       .  A
C2409     Br2421   1.920       .  S
C2410      H2413   1.084       .  S
C2412      C2414   1.405       .  A
C2412      C2418   1.407       .  A
C2414      C2415   1.410       .  A
C2414      H2419   1.083       .  S
C2415      C2416   1.415       .  A
C2415     Br2423   1.917       .  S
C2416      C2417   1.407       .  A
C2417      C2418   1.393       .  A
C2417      H2420   1.083       .  S
C2418     Br2424   1.922       .  S
C2425      C2426   1.411       .  A
C2425      C2430   1.405       .  A
C2426      C2427   1.404       .  A
C2426     Br2442   1.919       .  S
C2427      C2428   1.404       .  A
C2427      H2431   1.083       .  S
C2428      C2432   1.485       .  S
C2428      C2429   1.408       .  A
C2429      C2430   1.401       .  A
C2429     Br2441   1.918       .  S
C2430      H2433   1.084       .  S
C2432      C2434   1.402       .  A
C2432      C2438   1.406       .  A
C2434      C2435   1.407       .  A
C2434      H2439   1.083       .  S
C2435      C2436   1.420       .  A
C2435     Br2443   1.919       .  S
C2436      C2437   1.410       .  A
C2437      C2438   1.397       .  A
C2437      H2440   1.083       .  S
C2438     Br2444   1.918       .  S
C2445      C2446   1.411       .  A
C2445      C2450   1.405       .  A
C2446      C2447   1.392       .  A
C2446     Br2462   1.922       .  S
C2447      C2448   1.401       .  A
C2447      H2451   1.084       .  S
C2448      C2452   1.474       .  S
C2448      C2449   1.407       .  A
C2449      C2450   1.400       .  A
C2449     Br2461   1.918       .  S
C2450      H2453   1.083       .  S
C2452      C2454   1.402       .  A
C2452      C2458   1.406       .  A
C2454      C2455   1.396       .  A
C2454      H2459   1.084       .  S
C2455      C2456   1.412       .  A
C2455     Br2463   1.922       .  S
C2456      C2457   1.405       .  A
C2457      C2458   1.397       .  A
C2457      H2460   1.084       .  S
C2458     Br2464   1.919       .  S
C2465      C2466   1.415       .  A
C2465      C2470   1.408       .  A
C2466      C2467   1.405       .  A
C2466     Br2482   1.920       .  S
C2467      C2468   1.406       .  A
C2467      H2471   1.083   1_545  S
C2468      C2472   1.487   1_545  S
C2468      C2469   1.408       .  A
C2469      C2470   1.395       .  A
C2469     Br2481   1.922       .  S
C2470      H2473   1.083       .  S
C2472      C2474   1.407       .  A
C2472      C2478   1.409       .  A
C2474      C2475   1.406   1_655  A
C2474      H2479   1.083       .  S
C2475      C2476   1.414       .  A
C2475     Br2483   1.920       .  S
C2476      C2477   1.407       .  A
C2477      C2478   1.395   1_455  A
C2477      H2480   1.084       .  S
C2478     Br2484   1.922   1_565  S
C2485      C2486   1.411       .  A
C2485      C2490   1.404       .  A
C2486      C2487   1.401       .  A
C2486     Br2502   1.919       .  S
C2487      C2488   1.404       .  A
C2487      H2491   1.084       .  S
C2488      C2492   1.478       .  S
C2488      C2489   1.409       .  A
C2489      C2490   1.393       .  A
C2489     Br2501   1.923       .  S
C2490      H2493   1.084       .  S
C2492      C2494   1.401   1_455  A
C2492      C2498   1.409       .  A
C2494      C2495   1.400       .  A
C2494      H2499   1.084       .  S
C2495      C2496   1.420       .  A
C2495     Br2503   1.923       .  S
C2496      C2497   1.406       .  A
C2497      C2498   1.393   1_655  A
C2497      H2500   1.083       .  S
C2498     Br2504   1.923       .  S
C2505      C2506   1.412       .  A
C2505      C2510   1.408       .  A
C2506      C2507   1.404       .  A
C2506     Br2522   1.918       .  S
C2507      C2508   1.404       .  A
C2507      H2511   1.083       .  S
C2508      C2512   1.482       .  S
C2508      C2509   1.406       .  A
C2509      C2510   1.399       .  A
C2509     Br2521   1.919       .  S
C2510      H2513   1.084       .  S
C2512      C2514   1.404       .  A
C2512      C2518   1.406       .  A
C2514      C2515   1.408       .  A
C2514      H2519   1.083       .  S
C2515      C2516   1.415       .  A
C2515     Br2523   1.915       .  S
C2516      C2517   1.407       .  A
C2517      C2518   1.394       .  A
C2517      H2520   1.084       .  S
C2518     Br2524   1.921       .  S
C2525      C2526   1.416       .  A
C2525      C2530   1.404       .  A
C2526      C2527   1.396       .  A
C2526     Br2542   1.923       .  S
C2527      C2528   1.399       .  A
C2527      H2531   1.084       .  S
C2528      C2532   1.467       .  S
C2528      C2529   1.405       .  A
C2529      C2530   1.395       .  A
C2529     Br2541   1.919       .  S
C2530      H2533   1.084       .  S
C2532      C2534   1.400       .  A
C2532      C2538   1.405       .  A
C2534      C2535   1.402       .  A
C2534      H2539   1.083       .  S
C2535      C2536   1.416       .  A
C2535     Br2543   1.921       .  S
C2536      C2537   1.405       .  A
C2537      C2538   1.387       .  A
C2537      H2540   1.083   1_556  S
C2538     Br2544   1.924   1_556  S
C2545      C2546   1.411       .  A
C2545      C2550   1.406       .  A
C2546      C2547   1.400       .  A
C2546     Br2562   1.921       .  S
C2547      C2548   1.402       .  A
C2547      H2551   1.084       .  S
C2548      C2552   1.491       .  S
C2548      C2549   1.412       .  A
C2549      C2550   1.408       .  A
C2549     Br2561   1.917       .  S
C2550      H2553   1.083       .  S
C2552      C2554   1.406       .  A
C2552      C2558   1.412       .  A
C2554      C2555   1.406       .  A
C2554      H2559   1.083       .  S
C2555      C2556   1.411       .  A
C2555     Br2563   1.919       .  S
C2556      C2557   1.404       .  A
C2557      C2558   1.403       .  A
C2557      H2560   1.084       .  S
C2558     Br2564   1.920       .  S
C2565      C2566   1.413   1_554  A
C2565      C2570   1.406       .  A
C2566      C2567   1.400       .  A
C2566     Br2582   1.920       .  S
C2567      C2568   1.403   1_566  A
C2567      H2571   1.084   1_565  S
C2568      C2572   1.488       .  S
C2568      C2569   1.411   1_545  A
C2569      C2570   1.405       .  A
C2569     Br2581   1.918   1_565  S
C2570      H2573   1.083       .  S
C2572      C2574   1.400       .  A
C2572      C2578   1.408       .  A
C2574      C2575   1.400       .  A
C2574      H2579   1.084       .  S
C2575      C2576   1.423       .  A
C2575     Br2583   1.925       .  S
C2576      C2577   1.410       .  A
C2577      C2578   1.404       .  A
C2577      H2580   1.083       .  S
C2578     Br2584   1.917   1_545  S
C2585      C2586   1.417   1_656  A
C2585      C2590   1.409   1_655  A
C2586      C2587   1.405       .  A
C2586     Br2602   1.920       .  S
C2587      C2588   1.403   1_554  A
C2587      H2591   1.083       .  S
C2588      C2592   1.483       .  S
C2588      C2589   1.405       .  A
C2589      C2590   1.398       .  A
C2589     Br2601   1.920       .  S
C2590      H2593   1.083   1_455  S
C2592      C2594   1.404       .  A
C2592      C2598   1.404   1_556  A
C2594      C2595   1.408       .  A
C2594      H2599   1.083       .  S
C2595      C2596   1.419   1_556  A
C2595     Br2603   1.920       .  S
C2596      C2597   1.411       .  A
C2597      C2598   1.395       .  A
C2597      H2600   1.083       .  S
C2598     Br2604   1.922       .  S
C2605      C2606   1.416       .  A
C2605      C2610   1.409       .  A
C2606      C2607   1.400       .  A
C2606     Br2622   1.923       .  S
C2607      C2608   1.402       .  A
C2607      H2611   1.084       .  S
C2608      C2612   1.477       .  S
C2608      C2609   1.404       .  A
C2609      C2610   1.398       .  A
C2609     Br2621   1.918       .  S
C2610      H2613   1.083       .  S
C2612      C2614   1.402       .  A
C2612      C2618   1.406       .  A
C2614      C2615   1.396       .  A
C2614      H2619   1.084       .  S
C2615      C2616   1.412       .  A
C2615     Br2623   1.923       .  S
C2616      C2617   1.406       .  A
C2617      C2618   1.400       .  A
C2617      H2620   1.083       .  S
C2618     Br2624   1.917       .  S
