geometry optimzed in LAMMPS
_audit_creation_date              2020-12-01 
_audit_creation_method            'lammps2cif' 
_symmetry_space_group_name_H-M    'P1' 
_symmetry_Int_Tables_number       1 
_symmetry_cell_setting            triclinic 
loop_ 
_symmetry_equiv_pos_as_xyz 
  x,y,z 
_cell_length_a                    54.41017324 
_cell_length_b                    25.970250861140457 
_cell_length_c                    28.908512251236566 
_cell_angle_alpha                 90.59267013387428 
_cell_angle_beta                  118.95340264886826 
_cell_angle_gamma                 89.6272851307011 
loop_ 
_atom_site_label 
_atom_site_type_symbol 
_atom_site_fract_x 
_atom_site_fract_y 
_atom_site_fract_z 
_atom_site_charge 
O1          O  0.12172441  0.29244459  0.44480463    -0.85700
O2          O  0.08741874  0.26879992  0.34134735    -0.82800
C3          C  0.06286465  0.27004461  0.33619998     0.97700
O4          O  0.05295038  0.31174139  0.34270255    -0.82800
O5          O  0.04915024  0.41400259  0.37010146    -0.85400
C6          C  0.05915411  0.41480910  0.42006119     1.02300
O7          O  0.08359602  0.39840936  0.44871468    -0.78200
O8          O  0.13698125  0.36543325  0.48692012    -0.78400
C9          C  0.13156891  0.31800968  0.48705307     1.02200
O10         O  0.15720239  0.35622162  0.41831383    -0.85700
O11         O  0.11864187  0.33852250  0.31339328    -0.82800
C12         C  0.09574460  0.33523202  0.27091639     0.97800
O13         O  0.07264167  0.34304034  0.27111043    -0.82800
O14         O  0.07367265  0.44340842  0.30556856    -0.85400
C15         C  0.07763994  0.48179421  0.33521227     1.02200
O16         O  0.09008473  0.47619552  0.38507233    -0.78200
O17         O  0.14270393  0.43566452  0.41526267    -0.78400
C18         C  0.16155192  0.40449180  0.41999571     1.02200
Cr19       Cr  0.12003592  0.31778673  0.37973765     1.93700
Cr20       Cr  0.06452342  0.37743411  0.32599232     1.93200
Cr21       Cr  0.11260202  0.41594239  0.43032236     1.39100
O22         O  0.09915539  0.37063215  0.37827361    -1.23500
O23         O  0.12077049  0.11299809  0.97399820    -0.85700
O24         O  0.06769481  0.08158986  0.91596886    -0.82800
C25         C  0.04383697  0.07122731  0.87871282     0.97700
O26         O  0.03913334  0.07307423  0.83118910    -0.82800
O27         O  0.04698565  0.17489819  0.81872833    -0.85400
C28         C  0.05824428  0.21783092  0.82211682     1.02300
O29         O  0.08412593  0.22037106  0.83523962    -0.78200
O30         O  0.10925533  0.18854877  0.93720936    -0.78400
C31         C  0.11438270  0.15989606  0.97559898     1.02200
O32         O  0.13506276  0.04873425  0.90649799    -0.85700
O33         O  0.08132079  0.00965564  0.85502098    -0.82800
C34         C  0.07383466  0.00802260  0.80597030     0.97800
O35         O  0.07371975  0.04866938  0.78273073    -0.82800
O36         O  0.07660501  0.15033465  0.76107521    -0.85400
C37         C  0.10180702  0.15730901  0.77083525     1.02200
O38         O  0.12155014  0.15400475  0.81759599    -0.78200
O39         O  0.15083575  0.12814787  0.92331277    -0.78400
C40         C  0.15503245  0.08000678  0.92170798     1.02200
Cr41       Cr  0.10093581  0.06642321  0.90965893     1.93700
Cr42       Cr  0.06129492  0.11207187  0.80247627     1.93200
Cr43       Cr  0.11515466  0.16900999  0.87769783     1.39100
O44         O  0.09261911  0.11568031  0.86299843    -1.23500
O45         O  0.41033979  0.60428546  0.51519719    -0.85700
O46         O  0.44659870  0.54241960  0.59489695    -0.82800
C47         C  0.46686191  0.57331044  0.61306324     0.97700
O48         O  0.46713142  0.61171422  0.64060686    -0.82800
O49         O  0.44615164  0.69077151  0.67705845    -0.85400
C50         C  0.43858707  0.72364246  0.64099387     1.02300
O51         O  0.41736761  0.71566697  0.59629400    -0.78200
O52         O  0.37871712  0.65934041  0.51066932    -0.78400
C53         C  0.39488093  0.64274023  0.49379792     1.02200
O54         O  0.36454662  0.56364826  0.52703289    -0.85700
O55         O  0.40373168  0.51025725  0.61583546    -0.82800
C56         C  0.42540243  0.50325274  0.66007022     0.97800
O57         O  0.44302059  0.53910125  0.68222390    -0.82800
O58         O  0.41786127  0.61956948  0.70806319    -0.85400
C59         C  0.40087108  0.65651437  0.69951082     1.02200
O60         O  0.39164298  0.68215950  0.65736356    -0.78200
O61         O  0.35577751  0.61835991  0.57510986    -0.78400
C62         C  0.34845954  0.58003631  0.54395205     1.02200
Cr63       Cr  0.40637619  0.55946234  0.56620440     1.93700
Cr64       Cr  0.44132614  0.61490135  0.67223693     1.93200
Cr65       Cr  0.38749865  0.66493123  0.58636108     1.39100
O66         O  0.41151514  0.61292663  0.60871313    -1.23500
O67         O  0.38148591  0.79228112  0.02967561    -0.85700
O68         O  0.41568103  0.76625578  0.13306192    -0.82800
C69         C  0.44027175  0.76609861  0.13834401     0.97700
O70         O  0.44974208  0.80673354  0.12969108    -0.82800
O71         O  0.45651324  0.90727393  0.10787609    -0.85400
C72         C  0.44654666  0.90713351  0.05802133     1.02300
O73         O  0.42159848  0.89404017  0.02896179    -0.78200
O74         O  0.36790872  0.86629267  0.99010064    -0.78400
C75         C  0.37260335  0.81855287  0.98841647     1.02200
O76         O  0.34756966  0.85963915  0.05894563    -0.85700
O77         O  0.38590662  0.83856073  0.16307923    -0.82800
C78         C  0.40885706  0.83389787  0.20522148     0.97800
O79         O  0.43193530  0.83940402  0.20462216    -0.82800
O80         O  0.43286022  0.93894323  0.17412117    -0.85400
C81         C  0.43005287  0.97798369  0.14663444     1.02200
O82         O  0.41763585  0.97334680  0.09650159    -0.78200
O83         O  0.36393769  0.93748513  0.06400858    -0.78400
C84         C  0.34424261  0.90838912  0.05802171     1.02200
Cr85       Cr  0.38382521  0.81771602  0.09583163     1.93700
Cr86       Cr  0.44041038  0.87269975  0.15063502     1.93200
Cr87       Cr  0.39343993  0.91492622  0.04844607     1.39100
O88         O  0.40567877  0.86886276  0.09880647    -1.23500
C89         C  0.36454208  0.72446703  0.76776796    -0.11800
C90         C  0.38478752  0.71982210  0.82092256     0.14800
C91         C  0.40922543  0.69038373  0.83433639     0.01700
C92         C  0.41301893  0.66703970  0.79417460    -0.16100
C93         C  0.39328949  0.67353131  0.74044914    -0.10900
C94         C  0.36837509  0.70189781  0.72759642     0.08400
C95         C  0.37953971  0.74619666  0.86108539     0.09400
S96         S  0.43681384  0.68280604  0.90165002    -0.25200
H97         H  0.43228186  0.64606356  0.80496670     0.19700
S98         S  0.34038144  0.71159303  0.66108268    -0.30900
H99         H  0.34559048  0.74635183  0.75746014     0.10000
C100        C  0.38277015  0.79990571  0.86907827     0.03200
C101        C  0.37809327  0.82334737  0.90814943    -0.13200
C102        C  0.37055472  0.79405934  0.93998259    -0.08900
C103        C  0.36608464  0.74042531  0.93010629     0.06700
C104        C  0.37067529  0.71716791  0.89084775    -0.14000
S105        S  0.39437566  0.83819065  0.83146291    -0.30900
H106        H  0.38183147  0.86417598  0.91584497     0.10900
S107        S  0.35400400  0.70121696  0.96644274    -0.28000
H108        H  0.36755007  0.67621565  0.88337227     0.08100
H109        H  0.34344086  0.66351895  0.64229447     0.26600
H110        H  0.39739372  0.88486619  0.85884783     0.21400
H111        H  0.35658466  0.65326076  0.94611333     0.26700
H112        H  0.43283065  0.73041680  0.92063949     0.15500
C113        C  0.38379698  0.79032674  0.30065522    -0.11800
C114        C  0.40676265  0.76079416  0.33639606     0.14800
C115        C  0.43135744  0.75958995  0.33137940     0.01700
C116        C  0.43192729  0.78590772  0.28984269    -0.16100
C117        C  0.40876048  0.81488716  0.25349582    -0.10900
C118        C  0.38478654  0.81844445  0.26057163     0.08400
C119        C  0.40390588  0.73059502  0.37706639     0.09400
S120        S  0.46261715  0.72484407  0.37615129    -0.25200
H121        H  0.45046847  0.78242126  0.28513393     0.19700
S122        S  0.35484539  0.85851473  0.22051535    -0.30900
H123        H  0.36482591  0.79163725  0.30413801     0.10000
C124        C  0.39722060  0.75465353  0.41357461     0.03200
C125        C  0.39318260  0.72450476  0.44927795    -0.13200
C126        C  0.39654739  0.67071161  0.45085980    -0.08900
C127        C  0.40375889  0.64674898  0.41482573     0.06700
C128        C  0.40700754  0.67679166  0.37812994    -0.14000
S129        S  0.39557157  0.82405172  0.41725706    -0.30900
H130        H  0.38850601  0.74326946  0.47772720     0.10900
S131        S  0.40869816  0.57823030  0.41283239    -0.28000
H132        H  0.41186630  0.65799117  0.34987163     0.08100
H133        H  0.37079440  0.89844729  0.21563301     0.26600
H134        H  0.38786958  0.82642008  0.45718699     0.21400
H135        H  0.38636377  0.56509842  0.42195397     0.26700
H136        H  0.45909408  0.73156718  0.42092333     0.15500
C137        C  0.21574619  0.99941237  0.93176044    -0.11800
C138        C  0.23492156  0.00386436  0.98595445     0.14800
C139        C  0.22805186  0.03618487  0.01779248     0.01700
C140        C  0.20287293  0.06422252  0.99471647    -0.16100
C141        C  0.18345783  0.05866280  0.94088172    -0.10900
C142        C  0.18990706  0.02531735  0.90917746     0.08400
C143        C  0.26270124  0.97760798  0.00736519     0.09400
S144        S  0.24965188  0.04082779  0.08860124    -0.25200
H145        H  0.19755602  0.08794541  0.01966792     0.19700
S146        S  0.16603871  0.01294259  0.83999484    -0.30900
H147        H  0.22089640  0.97527757  0.90685052     0.10400
C148        C  0.26541431  0.92365618  0.00466859     0.03200
C149        C  0.29224659  0.90162992  0.02306305    -0.13200
C150        C  0.31665928  0.93214579  0.04572841    -0.08900
C151        C  0.31370907  0.98591111  0.05177015     0.06700
C152        C  0.28698264  0.00785811  0.03090250    -0.14000
S153        S  0.23485175  0.88262828  0.97883371    -0.30900
H154        H  0.29411076  0.86054510  0.01878163     0.10900
S155        S  0.34288781  0.02918950  0.08713141    -0.28000
H156        H  0.28509465  0.04918905  0.03390565     0.08100
H157        H  0.14864385  0.05609627  0.83040400     0.26600
H158        H  0.24940900  0.83544326  0.99164638     0.21400
H159        H  0.35792698  0.99476342  0.12890048     0.26700
H160        H  0.26010089  0.99019482  0.09540475     0.15500
C161        C  0.00312223  0.95666664  0.02607600    -0.11800
C162        C  0.48599153  0.97953247  0.97795614     0.14800
C163        C  0.45667782  0.97959581  0.95665287     0.01700
C164        C  0.44484679  0.95413403  0.98317366    -0.16100
C165        C  0.46154103  0.92924380  0.03170074    -0.10900
C166        C  0.49101124  0.92917558  0.05315455     0.08400
C167        C  0.99873782  0.00423622  0.94805127     0.09400
S168        S  0.43321741  0.01242920  0.89635035    -0.25200
H169        H  0.42220750  0.95543604  0.96627950     0.19700
S170        S  0.01529463  0.90236603  0.11596512    -0.30900
H171        H  0.02571750  0.96006146  0.04381082     0.10000
C172        C  0.01012811  0.05388674  0.96329962     0.03200
C173        C  0.02221170  0.07739656  0.93584108    -0.13200
C174        C  0.02327288  0.05210585  0.89359780    -0.08900
C175        C  0.01072521  0.00320785  0.87690167     0.06700
C176        C  0.99844699  0.97985276  0.90426446    -0.14000
S177        S  0.00970880  0.08691884  0.01823308    -0.30900
H178        H  0.03225699  0.11452062  0.94902416     0.10900
S179        S  0.01247732  0.96828236  0.82423620    -0.28000
H180        H  0.48671410  0.94507907  0.89127736     0.08100
H181        H  0.49610615  0.85442795  0.10416602     0.26600
H182        H  0.02154922  0.13323055  0.01356673     0.21400
H183        H  0.99758254  0.92446663  0.82485745     0.26700
H184        H  0.45136652  0.05360074  0.90330455     0.15500
C185        C  0.48286868  0.83638698  0.71913812    -0.11800
C186        C  0.99935302  0.84338814  0.69021285     0.14800
C187        C  0.99992062  0.80413806  0.65657150     0.01700
C188        C  0.47125158  0.78018238  0.62796803    -0.16100
C189        C  0.45542357  0.77115504  0.65360982    -0.10900
C190        C  0.46101608  0.80054132  0.69908029     0.08400
C191        C  0.02174557  0.88243024  0.71548570     0.09400
S192        S  0.02831217  0.79675005  0.64157981    -0.25200
H193        H  0.46760679  0.75681493  0.59397578     0.19700
S194        S  0.44145271  0.79291273  0.73422506    -0.30900
H195        H  0.48709491  0.85834646  0.75426952     0.10000
C196        C  0.01830553  0.93155168  0.69327016     0.03200
C197        C  0.03752462  0.97042671  0.72190453    -0.13200
C198        C  0.05984981  0.96180299  0.77326620    -0.08900
C199        C  0.06432736  0.91138558  0.79384337     0.06700
C200        C  0.04512705  0.87230909  0.76487925    -0.14000
S201        S  0.98837254  0.94545593  0.62970429    -0.30900
H202        H  0.03380700  0.00880775  0.70556946     0.10900
S203        S  0.09362671  0.89489987  0.85696995    -0.28000
H204        H  0.04787350  0.83423329  0.78170044     0.08100
H205        H  0.41625962  0.77780877  0.68972316     0.26600
H206        H  0.99424250  0.99790860  0.62832949     0.21400
H207        H  0.11201783  0.93152599  0.85490056     0.26700
H208        H  0.03627816  0.84876914  0.64782566     0.15500
C209        C  0.45422133  0.36915091  0.68299574    -0.11800
C210        C  0.47103227  0.37090702  0.73822970     0.14800
C211        C  0.46731413  0.41151095  0.76709422     0.01700
C212        C  0.44807331  0.45063576  0.73999902    -0.16100
C213        C  0.43361272  0.45200524  0.68447647    -0.10900
C214        C  0.43567318  0.40949904  0.65567466     0.08400
C215        C  0.99581179  0.33638338  0.76240025     0.09400
S216        S  0.48848197  0.41902703  0.83780635    -0.25200
H217        H  0.44678542  0.48333189  0.76226724     0.19700
S218        S  0.41778330  0.40926440  0.58422396    -0.30900
H219        H  0.45709744  0.33778911  0.66121605     0.10000
C220        C  0.49451761  0.29562204  0.79879380     0.03200
C221        C  0.01745183  0.26295327  0.81885059    -0.13200
C222        C  0.03982212  0.26373879  0.80738423    -0.08900
C223        C  0.04061590  0.30296319  0.77459366     0.06700
C224        C  0.01851988  0.33853796  0.75217499    -0.14000
S225        S  0.46571680  0.29035333  0.81292354    -0.30900
H226        H  0.01663006  0.23277040  0.84357516     0.10900
S227        S  0.06773107  0.30689960  0.75607908    -0.28000
H228        H  0.01886899  0.36787016  0.72617118     0.08100
H229        H  0.42656450  0.36001247  0.57751774     0.26600
H230        H  0.47700589  0.24988913  0.84935016     0.21400
H231        H  0.08952354  0.30931823  0.80873948     0.26700
H232        H  0.01667024  0.40270730  0.83902814     0.15500
C233        C  0.13976249  0.19652648  0.69452744    -0.11800
C234        C  0.11768404  0.21850818  0.64950495     0.14800
C235        C  0.09009579  0.21563649  0.64198145     0.01700
C236        C  0.08552236  0.19406037  0.68133907    -0.16100
C237        C  0.10779440  0.17405126  0.72804304    -0.10900
C238        C  0.13527090  0.17411244  0.73376499     0.08400
C239        C  0.12433873  0.24525358  0.61192334     0.09400
S240        S  0.05992295  0.23970309  0.58361240    -0.25200
H241        H  0.06433381  0.19404516  0.67574151     0.19700
S242        S  0.16508846  0.14624895  0.79036735    -0.30900
H243        H  0.16076844  0.19816229  0.69937107     0.10000
C244        C  0.12317918  0.29936681  0.60767921     0.03200
C245        C  0.12807115  0.32275953  0.56933712    -0.13200
C246        C  0.13416690  0.29315735  0.53516096    -0.08900
C247        C  0.13741644  0.23913670  0.54250898     0.06700
C248        C  0.13222418  0.21590766  0.58034393    -0.14000
S249        S  0.11499563  0.33851526  0.65048512    -0.30900
H250        H  0.12560369  0.36410072  0.56406751     0.10900
S251        S  0.14804439  0.19760578  0.50493192    -0.28000
H252        H  0.13395005  0.17434533  0.58473954     0.08100
H253        H  0.18478719  0.15178823  0.77245990     0.26600
H254        H  0.11509326  0.38631572  0.62810967     0.21400
H255        H  0.16525196  0.23453765  0.49942609     0.26700
H256        H  0.07097599  0.23277461  0.54896292     0.15500
C257        C  0.12100470  0.29102437  0.17491589    -0.11800
C258        C  0.09938564  0.25731506  0.14210907     0.14800
C259        C  0.07552854  0.25298214  0.14914208     0.01700
C260        C  0.07393407  0.28206446  0.18877202    -0.16100
C261        C  0.09596203  0.31477790  0.22282859    -0.10900
C262        C  0.11951107  0.31996761  0.21467919     0.08400
C263        C  0.10185332  0.22989295  0.09913951     0.09400
S264        S  0.04680651  0.21001902  0.11000711    -0.25200
H265        H  0.05597109  0.27680432  0.19486820     0.19700
S266        S  0.14820472  0.36335097  0.25292319    -0.30900
H267        H  0.13907948  0.29532741  0.16899212     0.10000
C268        C  0.08712318  0.24709883  0.04663317     0.03200
C269        C  0.09181582  0.22321108  0.00790577    -0.13200
C270        C  0.11106571  0.18218717  0.02006237    -0.08900
C271        C  0.12535402  0.16426684  0.07272395     0.06700
C272        C  0.12058373  0.18824905  0.11153773    -0.14000
S273        S  0.06296454  0.30071305  0.02905358    -0.30900
H274        H  0.08032148  0.23678519  0.96767771     0.10900
S275        S  0.15072074  0.11282031  0.09353212    -0.28000
H276        H  0.13201221  0.17510908  0.15199170     0.08100
H277        H  0.13147499  0.40117366  0.25949604     0.26600
H278        H  0.05292410  0.29829572  0.97416075     0.21400
H279        H  0.16352049  0.12987330  0.06424904     0.26700
H280        H  0.06275599  0.17339589  0.09983201     0.15500
C281        C  0.46867881  0.10696375  0.17797849    -0.11800
C282        C  0.48554576  0.10318148  0.23301923     0.14800
C283        C  0.48140354  0.06158899  0.25939086     0.01700
C284        C  0.46113968  0.02443852  0.23035326    -0.16100
C285        C  0.44532072  0.02596031  0.17464840    -0.10900
C286        C  0.44868512  0.06916233  0.14858412     0.08400
C287        C  0.00479141  0.14588043  0.26100639     0.09400
S288        S  0.00188578  0.05318827  0.32916580    -0.25200
H289        H  0.45905828  0.99224218  0.25172173     0.19700
S290        S  0.42884095  0.07828658  0.07820359    -0.30900
H291        H  0.47131168  0.13954823  0.15766354     0.10000
C292        C  0.02805889  0.15246331  0.25267781     0.03200
C293        C  0.04758106  0.19147465  0.28015243    -0.13200
C294        C  0.04443711  0.22422634  0.31598052    -0.08900
C295        C  0.02174139  0.21591414  0.32598268     0.06700
C296        C  0.00202222  0.17744867  0.29790613    -0.14000
S297        S  0.03308342  0.11095937  0.20733282    -0.30900
H298        H  0.06483294  0.19765499  0.27220965     0.10900
S299        S  0.01702883  0.25217401  0.37469936    -0.28000
H300        H  0.48590554  0.16896191  0.30547181     0.08100
H301        H  0.40301212  0.06581319  0.07541005     0.26600
H302        H  0.05719798  0.13543226  0.21207924     0.21400
H303        H  0.04591562  0.25758705  0.41020680     0.26700
H304        H  0.02645594  0.07503494  0.33330722     0.15500
C305        C  0.47436817  0.64125615  0.21040427    -0.11800
C306        C  0.00198342  0.64820770  0.22473845     0.14800
C307        C  0.50931794  0.69477657  0.20526854     0.01700
C308        C  0.48810580  0.72918165  0.17377490    -0.16100
C309        C  0.45993769  0.72181382  0.16175229    -0.10900
C310        C  0.45306587  0.67618393  0.17950920     0.08400
C311        C  0.02357836  0.60905672  0.25623616     0.09400
S312        S  0.04423771  0.70830859  0.22106538    -0.25200
H313        H  0.49417380  0.76355804  0.16089062     0.19700
S314        S  0.41787920  0.65988205  0.16475389    -0.30900
H315        H  0.46896535  0.60640864  0.22378443     0.10000
C316        C  0.02984253  0.59628045  0.30815137     0.03200
C317        C  0.04949542  0.55722211  0.33498695    -0.13200
C318        C  0.06304272  0.53058089  0.31102153    -0.08900
C319        C  0.05790147  0.54547008  0.26027229     0.06700
C320        C  0.03802663  0.58402916  0.23325678    -0.14000
S321        S  0.01278129  0.62928577  0.34031111    -0.30900
H322        H  0.05318732  0.54554658  0.37361195     0.10900
S323        S  0.07668287  0.51578101  0.22970889    -0.28000
H324        H  0.53188913  0.59342464  0.19097889     0.08100
H325        H  0.40607263  0.67213444  0.11082737     0.26600
H326        H  0.02602153  0.60206002  0.38813542     0.21400
H327        H  0.06412393  0.54441657  0.18275878     0.26700
H328        H  0.05702423  0.68757847  0.27224660     0.15500
C329        C  0.28335496  0.51788119  0.53811600    -0.11800
C330        C  0.27006365  0.49766449  0.48647787     0.14800
C331        C  0.28255296  0.50505814  0.45418922     0.01700
C332        C  0.30742068  0.53353486  0.47350904    -0.16100
C333        C  0.32095698  0.55377868  0.52532214    -0.10900
C334        C  0.30893220  0.54445380  0.55832116     0.08400
C335        C  0.24265898  0.47095671  0.46670095     0.09400
S336        S  0.26810374  0.47822108  0.38838875    -0.25200
H337        H  0.31658330  0.53914153  0.44795524     0.19700
S338        S  0.32599917  0.56134245  0.62747816    -0.30900
H339        H  0.27404304  0.51174917  0.56332590     0.10000
C340        C  0.24057766  0.42185437  0.48491955     0.03200
C341        C  0.21396362  0.39954989  0.46716007    -0.13200
C342        C  0.18933249  0.42539486  0.43140452    -0.08900
C343        C  0.19168846  0.47330511  0.41082969     0.06700
C344        C  0.21825637  0.49561281  0.42905363    -0.14000
S345        S  0.27185554  0.38758887  0.53058245    -0.30900
H346        H  0.21227447  0.36274871  0.48264370     0.10900
S347        S  0.16109750  0.50579001  0.36010520    -0.28000
H348        H  0.22013693  0.53271220  0.41434355     0.08100
H349        H  0.35331375  0.54960581  0.63692370     0.26600
H350        H  0.25834043  0.34199411  0.53169116     0.21400
H351        H  0.17512853  0.54901881  0.35534442     0.26700
H352        H  0.25627389  0.43435688  0.39794262     0.15500
C353        C  0.50661857  0.48143869  0.45581573    -0.11800
C354        C  0.02389522  0.50000759  0.50369233     0.14800
C355        C  0.05260678  0.48752772  0.52749515     0.01700
C356        C  0.06270709  0.45825311  0.49962576    -0.16100
C357        C  0.04513836  0.44157004  0.44710475    -0.10900
C358        C  0.01630856  0.45504335  0.42269847     0.08400
C359        C  0.51368640  0.52270139  0.54004704     0.09400
S360        S  0.07760244  0.50816074  0.59357044    -0.25200
H361        H  0.08500415  0.44974782  0.51931796     0.19700
S362        S  0.49070738  0.42988300  0.36184420    -0.30900
H363        H  0.48438602  0.48957412  0.43878282     0.10000
C364        C  0.50240753  0.57297866  0.53051019     0.03200
C365        C  0.49021643  0.59237053  0.56042466    -0.13200
C366        C  0.48922257  0.56235659  0.59964668    -0.08900
C367        C  0.50238351  0.51357771  0.61147995     0.06700
C368        C  0.51431523  0.49427807  0.58157117    -0.14000
S369        S  0.00296291  0.61440457  0.47794139    -0.30900
H370        H  0.47947831  0.62917876  0.55044017     0.10900
S371        S  0.50260201  0.47247935  0.66167884    -0.28000
H372        H  0.52344922  0.45600140  0.58968500     0.08100
H373        H  0.00266882  0.38485254  0.36223921     0.26600
H374        H  0.99439389  0.66035819  0.49218797     0.21400
H375        H  0.49913030  0.51219948  0.69147311     0.26700
H376        H  0.06386314  0.55455483  0.59246387     0.15500
O377        O  0.62232569  0.29529840  0.44643191    -0.85700
O378        O  0.58838958  0.26922811  0.34309416    -0.82800
C379        C  0.56384797  0.26919487  0.33802958     0.97700
O380        O  0.55345814  0.31030161  0.34454502    -0.82800
O381        O  0.54822231  0.41256608  0.37090403    -0.85400
C382        C  0.55871285  0.41367276  0.42102008     1.02300
O383        O  0.58335370  0.39816753  0.44895600    -0.78200
O384        O  0.63700144  0.36914726  0.48682377    -0.78400
C385        C  0.63172284  0.32186569  0.48805195     1.02200
O386        O  0.65668425  0.36065980  0.41823863    -0.85700
O387        O  0.61835169  0.34057504  0.31386394    -0.82800
C388        C  0.59543242  0.33668284  0.27147453     0.97800
O389        O  0.57222657  0.34274913  0.27176388    -0.82800
O390        O  0.57161009  0.44288610  0.30450819    -0.85400
C391        C  0.57573100  0.48168536  0.33367863     1.02200
O392        O  0.58805029  0.47670770  0.38357236    -0.78200
O393        O  0.64088521  0.43942067  0.41305198    -0.78400
C394        C  0.66016909  0.40912242  0.41839089     1.02200
Cr395      Cr  0.62022647  0.32002203  0.38066084     1.93700
Cr396      Cr  0.56376046  0.37661968  0.32650254     1.93200
Cr397      Cr  0.61157587  0.41792345  0.42953239     1.39100
O398        O  0.59861650  0.37181479  0.37834593    -1.23500
O399        O  0.62234572  0.11521253  0.97624668    -0.85700
O400        O  0.57003834  0.07937003  0.91913898    -0.82800
C401        C  0.54613163  0.06856935  0.88218421     0.97700
O402        O  0.54118957  0.07032242  0.83449696    -0.82800
O403        O  0.54714278  0.17248838  0.82052619    -0.85400
C404        C  0.55761219  0.21599450  0.82289479     1.02300
O405        O  0.58337709  0.21999328  0.83554124    -0.78200
O406        O  0.60970911  0.18996974  0.93795548    -0.78400
C407        C  0.61581874  0.16220259  0.97736869     1.02200
O408        O  0.63798179  0.05216021  0.90945132    -0.85700
O409        O  0.58460064  0.00920423  0.85845120    -0.82800
C410        C  0.57634612  0.00739144  0.80903553     0.97800
O411        O  0.57578618  0.04806598  0.78543773    -0.82800
O412        O  0.57686119  0.15028530  0.76231302    -0.85400
C413        C  0.60188899  0.15919043  0.77185670     1.02200
O414        O  0.62174660  0.15588689  0.81843871    -0.78200
O415        O  0.65200879  0.13262930  0.92475956    -0.78400
C416        C  0.65730933  0.08487699  0.92440829     1.02200
Cr417      Cr  0.60343065  0.06713127  0.91249379     1.93700
Cr418      Cr  0.56247678  0.11067482  0.80475300     1.93200
Cr419      Cr  0.61542977  0.17067474  0.87850008     1.39100
O420        O  0.59390551  0.11600612  0.86505776    -1.23500
O421        O  0.90876579  0.60423750  0.51177380    -0.85700
O422        O  0.94553101  0.54365469  0.59189272    -0.82800
C423        C  0.96579990  0.57456091  0.60972509     0.97700
O424        O  0.96623733  0.61309062  0.63729561    -0.82800
O425        O  0.94539730  0.69264138  0.67320710    -0.85400
C426        C  0.93841381  0.72388685  0.63597584     1.02300
O427        O  0.91702324  0.71573518  0.59167901    -0.78200
O428        O  0.87741811  0.65966646  0.50744587    -0.78400
C429        C  0.89337937  0.64274772  0.49032982     1.02200
O430        O  0.86344222  0.56435300  0.52612479    -0.85700
O431        O  0.90339947  0.51137131  0.61481341    -0.82800
C432        C  0.92531990  0.50503604  0.65886803     0.97800
O433        O  0.94265613  0.54138001  0.68023540    -0.82800
O434        O  0.91710131  0.62202099  0.70511132    -0.85400
C435        C  0.90030954  0.65936870  0.69645811     1.02200
O436        O  0.89165433  0.68524644  0.65455174    -0.78200
O437        O  0.85498596  0.62155426  0.57283625    -0.78400
C438        C  0.84726978  0.58303824  0.54191187     1.02200
Cr439      Cr  0.90532825  0.56022801  0.56402475     1.93700
Cr440      Cr  0.94061137  0.61684613  0.66930076     1.93200
Cr441      Cr  0.88692870  0.66663028  0.58329464     1.39100
O442        O  0.91066884  0.61421764  0.60598175    -1.23500
O443        O  0.88098049  0.79176326  0.02875043    -0.85700
O444        O  0.91537050  0.76529639  0.13231137    -0.82800
C445        C  0.93993756  0.76426989  0.13743460     0.97700
O446        O  0.94960733  0.80442893  0.12829996    -0.82800
O447        O  0.95719266  0.90492212  0.10660867    -0.85400
C448        C  0.94707708  0.90459960  0.05673112     1.02300
O449        O  0.92202266  0.89195033  0.02810513    -0.78200
O450        O  0.86813794  0.86617667  0.98975192    -0.78400
C451        C  0.87242906  0.81831083  0.98769710     1.02200
O452        O  0.84807931  0.86104095  0.05931737    -0.85700
O453        O  0.88657148  0.83939071  0.16286596    -0.82800
C454        C  0.90955663  0.83436357  0.20484670     0.97800
O455        O  0.93260405  0.83854086  0.20391754    -0.82800
O456        O  0.93430750  0.93765621  0.17370839    -0.85400
C457        C  0.93105709  0.97686772  0.14616531     1.02200
O458        O  0.91887082  0.97220859  0.09605004    -0.78200
O459        O  0.86518544  0.93822834  0.06420077    -0.78400
C460        C  0.84541519  0.90993551  0.05925289     1.02200
Cr461      Cr  0.88393537  0.81779960  0.09540207     1.93700
Cr462      Cr  0.94107654  0.87102729  0.14966461     1.93200
Cr463      Cr  0.89423521  0.91425342  0.04800293     1.39100
O464        O  0.90620635  0.86811147  0.09820254    -1.23500
C465        C  0.86443825  0.72952658  0.76480069    -0.11800
C466        C  0.88328117  0.72022630  0.81802229     0.14800
C467        C  0.90641520  0.68717963  0.83099983     0.01700
C468        C  0.91041253  0.66509037  0.79053886    -0.16100
C469        C  0.89227324  0.67630074  0.73696355    -0.10900
C470        C  0.86849910  0.70820841  0.72435501     0.08400
C471        C  0.87835197  0.74643133  0.85878104     0.09400
S472        S  0.93223196  0.67353209  0.89839822    -0.25200
H473        H  0.92876361  0.64114204  0.80132312     0.19700
S474        S  0.84235164  0.72431865  0.65790455    -0.30900
H475        H  0.84643736  0.75431007  0.75467081     0.10000
C476        C  0.88355143  0.79954744  0.86941027     0.03200
C477        C  0.87921855  0.82288940  0.90891010    -0.13200
C478        C  0.87033544  0.79413791  0.93903844    -0.08900
C479        C  0.86423946  0.74113217  0.92706002     0.06700
C480        C  0.86824379  0.71801502  0.88699033    -0.14000
S481        S  0.89739472  0.83694887  0.83486084    -0.30900
H482        H  0.88430042  0.86327671  0.91836656     0.10900
S483        S  0.85097574  0.70275052  0.96199078    -0.28000
H484        H  0.86382346  0.67739178  0.87784015     0.08100
H485        H  0.84252729  0.67582956  0.63654851     0.26600
H486        H  0.90164393  0.88285153  0.86401915     0.21400
H487        H  0.84977822  0.65560530  0.93659159     0.26700
H488        H  0.93052403  0.72150109  0.91964016     0.15500
C489        C  0.88380065  0.79273608  0.29944552    -0.11800
C490        C  0.90626417  0.76194001  0.33478087     0.14800
C491        C  0.93104382  0.76005391  0.33039614     0.01700
C492        C  0.93212851  0.78637831  0.28938424    -0.16100
C493        C  0.90937593  0.81627563  0.25324260    -0.10900
C494        C  0.88545570  0.82124511  0.26027478     0.08400
C495        C  0.90276111  0.73131441  0.37447096     0.09400
S496        S  0.96190415  0.72443186  0.37531701    -0.25200
H497        H  0.95068348  0.78210591  0.28485086     0.19700
S498        S  0.85647657  0.86374342  0.22134019    -0.30900
H499        H  0.86474473  0.79478122  0.30254247     0.10000
C500        C  0.89576395  0.75501718  0.41070550     0.03200
C501        C  0.89147620  0.72453742  0.44586887    -0.13200
C502        C  0.89502666  0.67077700  0.44740670    -0.08900
C503        C  0.90247191  0.64713824  0.41156792     0.06700
C504        C  0.90582586  0.67748792  0.37517379    -0.14000
S505        S  0.89413837  0.82438492  0.41499195    -0.30900
H506        H  0.88655115  0.74305498  0.47406573     0.10900
S507        S  0.90775574  0.57873601  0.40964536    -0.28000
H508        H  0.91088784  0.65896122  0.34709862     0.08100
H509        H  0.87326188  0.90207287  0.21652790     0.26600
H510        H  0.88706894  0.82639010  0.45577622     0.21400
H511        H  0.88543996  0.56508794  0.41862450     0.26700
H512        H  0.95806997  0.73105632  0.41975367     0.15500
C513        C  0.71988477  0.00943368  0.93625508    -0.11800
C514        C  0.73836724  0.01279931  0.99085174     0.14800
C515        C  0.73082663  0.04442964  0.02225957     0.01700
C516        C  0.70529255  0.07151408  0.99849891    -0.16100
C517        C  0.68628173  0.06582682  0.94441039    -0.10900
C518        C  0.69377321  0.03429604  0.91298978     0.08400
C519        C  0.76567558  0.98455492  0.01308759     0.09400
S520        S  0.75179970  0.04905502  0.09320716    -0.25200
H521        H  0.69931537  0.09432746  0.02315089     0.19700
S522        S  0.67078998  0.02244296  0.84336715    -0.30900
H523        H  0.72564580  0.98621584  0.91154084     0.10400
C524        C  0.76710314  0.93066806  0.00704142     0.03200
C525        C  0.79337439  0.90667709  0.02437935    -0.13200
C526        C  0.81848831  0.93502831  0.04916460    -0.08900
C527        C  0.81689552  0.98837334  0.05917439     0.06700
C528        C  0.79071919  0.01250348  0.03946371    -0.14000
S529        S  0.73553567  0.89212471  0.97794818    -0.30900
H530        H  0.79426511  0.86586407  0.01736148     0.10900
S531        S  0.84724122  0.02817388  0.09801250    -0.28000
H532        H  0.78987558  0.05368858  0.04512630     0.08100
H533        H  0.65232398  0.06385352  0.83381344     0.26600
H534        H  0.74872444  0.84406050  0.98363772     0.21400
H535        H  0.86181661  0.98989802  0.13578291     0.26700
H536        H  0.76240511  0.99852746  0.10038577     0.15500
C537        C  0.50293468  0.95448850  0.02610546    -0.11800
C538        C  0.98587902  0.97790797  0.97594123     0.14800
C539        C  0.95659697  0.97268602  0.95236665     0.01700
C540        C  0.94510332  0.94652001  0.97903657    -0.16100
C541        C  0.96201722  0.92597741  0.02986194    -0.10900
C542        C  0.99150536  0.93046832  0.05318039     0.08400
C543        C  0.49923706  0.00489908  0.95019698     0.09400
S544        S  0.93262613  0.99960992  0.88879894    -0.25200
H545        H  0.92242376  0.94414067  0.96029438     0.19700
S546        S  0.51427676  0.89620783  0.11329068    -0.30900
H547        H  0.52553271  0.95422476  0.04230830     0.10000
C548        C  0.51285546  0.05253133  0.96796825     0.03200
C549        C  0.52568131  0.07490275  0.94132429    -0.13200
C550        C  0.52552759  0.05037405  0.89759207    -0.08900
C551        C  0.51090301  0.00348206  0.87853435     0.06700
C552        C  0.49765204  0.98146792  0.90487727    -0.14000
S553        S  0.51427510  0.08436087  0.02508637    -0.30900
H554        H  0.53716491  0.11066298  0.95618407     0.10900
S555        S  0.51107423  0.96926590  0.82398878    -0.28000
H556        H  0.98923984  0.94194236  0.89262126     0.08100
H557        H  0.99916401  0.85765259  0.10774068     0.26600
H558        H  0.52886854  0.12823244  0.02363790     0.21400
H559        H  0.49662603  0.92534883  0.82592007     0.26700
H560        H  0.94881544  0.04327685  0.89341951     0.15500
C561        C  0.97670847  0.84617562  0.70053174    -0.11800
C562        C  0.49951764  0.84402557  0.69499734     0.14800
C563        C  0.49346987  0.81577819  0.64852661     0.01700
C564        C  0.97824337  0.76766629  0.63537704    -0.16100
C565        C  0.95589617  0.76991559  0.64664725    -0.10900
C566        C  0.95506777  0.80990682  0.67925703     0.08400
C567        C  0.52240132  0.88271604  0.71937439     0.09400
S568        S  0.51407886  0.82116238  0.61521260    -0.25200
H569        H  0.97948150  0.73591549  0.61193887     0.19700
S570        S  0.92785114  0.81477452  0.69773096    -0.30900
H571        H  0.97617611  0.87639341  0.72617638     0.10000
C572        C  0.51987668  0.93134274  0.69646032     0.03200
C573        C  0.53975337  0.96958022  0.72479156    -0.13200
C574        C  0.56183317  0.96108885  0.77652463    -0.08900
C575        C  0.56539429  0.91106953  0.79769690     0.06700
C576        C  0.54553723  0.87272986  0.76923508    -0.14000
S577        S  0.48983737  0.94644715  0.63342655    -0.30900
H578        H  0.53664824  0.00768487  0.70794471     0.10900
S579        S  0.59443367  0.89405361  0.86092562    -0.28000
H580        H  0.54768880  0.83511244  0.78672659     0.08100
H581        H  0.90682559  0.79060170  0.65204642     0.26600
H582        H  0.49729571  0.99758928  0.63051822     0.21400
H583        H  0.61347626  0.92853286  0.85799017     0.26700
H584        H  0.53903728  0.83765695  0.65933204     0.15500
C585        C  0.95487497  0.37140269  0.68254839    -0.11800
C586        C  0.97295782  0.37464567  0.73728555     0.14800
C587        C  0.96995452  0.41584163  0.76632474     0.01700
C588        C  0.95015976  0.45423932  0.73966290    -0.16100
C589        C  0.93424299  0.45422166  0.68420125    -0.10900
C590        C  0.93549437  0.41080182  0.65554053     0.08400
C591        C  0.49411423  0.33295984  0.76349128     0.09400
S592        S  0.99233920  0.42430278  0.83663378    -0.25200
H593        H  0.94938931  0.48750085  0.76199242     0.19700
S594        S  0.91505695  0.40787586  0.58431332    -0.30900
H595        H  0.95711442  0.33921114  0.66064461     0.10000
C596        C  0.99542333  0.29861026  0.79651067     0.03200
C597        C  0.51684230  0.26041944  0.82081944    -0.13200
C598        C  0.53850988  0.26090158  0.80740738    -0.08900
C599        C  0.53812326  0.29881607  0.77238351     0.06700
C600        C  0.51600440  0.33429817  0.75091386    -0.14000
S601        S  0.96605037  0.29368025  0.80899401    -0.30900
H602        H  0.51683342  0.23086270  0.84689859     0.10900
S603        S  0.56339446  0.30047113  0.74911941    -0.28000
H604        H  0.51557730  0.36274053  0.72341018     0.08100
H605        H  0.92222272  0.35703385  0.57833831     0.26600
H606        H  0.97793403  0.25621281  0.84870993     0.21400
H607        H  0.58643289  0.30587985  0.80021515     0.26700
H608        H  0.51333643  0.39856899  0.84148219     0.15500
C609        C  0.63924668  0.20620187  0.69692053    -0.11800
C610        C  0.61672282  0.22633242  0.65134145     0.14800
C611        C  0.58916274  0.22062925  0.64340792     0.01700
C612        C  0.58494560  0.19719803  0.68247219    -0.16100
C613        C  0.60759102  0.17833429  0.72938624    -0.10900
C614        C  0.63518485  0.18225068  0.73595702     0.08400
C615        C  0.62296577  0.25245673  0.61287118     0.09400
S616        S  0.55854340  0.24289027  0.58474074    -0.25200
H617        H  0.56371993  0.19463369  0.67641175     0.19700
S618        S  0.66574063  0.15695274  0.79313695    -0.30900
H619        H  0.66021447  0.20992804  0.70199176     0.10000
C620        C  0.62134256  0.30641947  0.60705335     0.03200
C621        C  0.62663825  0.32888794  0.56873630    -0.13200
C622        C  0.63374750  0.29848572  0.53637162    -0.08900
C623        C  0.63743649  0.24478905  0.54542443     0.06700
C624        C  0.63171052  0.22246786  0.58296656    -0.14000
S625        S  0.61213881  0.34649871  0.64783258    -0.30900
H626        H  0.62375556  0.37000370  0.56209044     0.10900
S627        S  0.64950297  0.20257527  0.51063145    -0.28000
H628        H  0.63391134  0.18111730  0.58873943     0.08100
H629        H  0.68614686  0.17289115  0.77977749     0.26600
H630        H  0.61530482  0.39411011  0.62854777     0.21400
H631        H  0.66661996  0.23972172  0.50514807     0.26700
H632        H  0.56986308  0.23791755  0.55033118     0.15500
C633        C  0.62150258  0.30021453  0.17493550    -0.11800
C634        C  0.60196046  0.26232725  0.14434432     0.14800
C635        C  0.57860259  0.25344979  0.15203300     0.01700
C636        C  0.57578993  0.28136699  0.19098347    -0.16100
C637        C  0.59600434  0.31773439  0.22333846    -0.10900
C638        C  0.61869978  0.32821827  0.21384411     0.08400
C639        C  0.60539128  0.23588965  0.10201592     0.09400
S640        S  0.55171112  0.20706817  0.11360316    -0.25200
H641        H  0.55836571  0.27252540  0.19790917     0.19700
S642        S  0.64447832  0.37743629  0.24928756    -0.30900
H643        H  0.63898141  0.30843259  0.16798574     0.10000
C644        C  0.59407534  0.25735821  0.05142554     0.03200
C645        C  0.59826825  0.23250581  0.01258681    -0.13200
C646        C  0.61383634  0.18624339  0.02277328    -0.08900
C647        C  0.62533319  0.16497356  0.07404077     0.06700
C648        C  0.62094619  0.18992747  0.11292767    -0.14000
S649        S  0.57404807  0.31652481  0.03605998    -0.30900
H650        H  0.58887425  0.24915789  0.97367119     0.10900
S651        S  0.64620962  0.10714737  0.09296957    -0.28000
H652        H  0.62987676  0.17369029  0.15205848     0.08100
H653        H  0.62599667  0.41017089  0.25688687     0.26600
H654        H  0.57019345  0.32235380  0.98463952     0.21400
H655        H  0.66259960  0.12181370  0.06973567     0.26700
H656        H  0.56933687  0.17198634  0.10640787     0.15500
C657        C  0.96637494  0.10906634  0.17749138    -0.11800
C658        C  0.98357047  0.10528152  0.23244255     0.14800
C659        C  0.98047055  0.06266599  0.25890351     0.01700
C660        C  0.96108660  0.02422220  0.22991472    -0.16100
C661        C  0.94522725  0.02558176  0.17419605    -0.10900
C662        C  0.94730365  0.06999672  0.14814405     0.08400
C663        C  0.50677859  0.14370585  0.26211464     0.09400
S664        S  0.50241379  0.05186990  0.32970751    -0.25200
H665        H  0.95984860  0.99123958  0.25128229     0.19700
S666        S  0.92707982  0.07906572  0.07780808    -0.30900
H667        H  0.96824982  0.14235715  0.15717492     0.10000
C668        C  0.53024378  0.15083450  0.25445315     0.03200
C669        C  0.54948949  0.19020443  0.28223843    -0.13200
C670        C  0.54592350  0.22268109  0.31779433    -0.08900
C671        C  0.52310579  0.21361709  0.32725625     0.06700
C672        C  0.50364034  0.17498749  0.29876682    -0.14000
S673        S  0.53580872  0.10971971  0.20950634    -0.30900
H674        H  0.56685423  0.19696020  0.27464653     0.10900
S675        S  0.51787057  0.24919033  0.37572720    -0.28000
H676        H  0.98447002  0.17176478  0.30512591     0.08100
H677        H  0.90169046  0.06346039  0.07513363     0.26600
H678        H  0.56069212  0.13314047  0.21679982     0.21400
H679        H  0.54667305  0.25506882  0.41164193     0.26700
H680        H  0.52736325  0.07234608  0.33427882     0.15500
C681        C  0.97381320  0.63972456  0.21132971    -0.11800
C682        C  0.50249097  0.65032829  0.22409084     0.14800
C683        C  0.00873963  0.69209987  0.20489084     0.01700
C684        C  0.98754843  0.72630238  0.17283725    -0.16100
C685        C  0.95942564  0.71967557  0.16130689    -0.10900
C686        C  0.95254198  0.67469091  0.18003607     0.08400
C687        C  0.52395882  0.61123260  0.25523788     0.09400
S688        S  0.54487763  0.71114129  0.22200121    -0.25200
H689        H  0.99364363  0.76011132  0.15917843     0.19700
S690        S  0.91735511  0.65926510  0.16592645    -0.30900
H691        H  0.96832347  0.60529379  0.22516637     0.10000
C692        C  0.53093989  0.60010673  0.30780103     0.03200
C693        C  0.54990624  0.56014731  0.33425360    -0.13200
C694        C  0.56185622  0.53075258  0.30903729    -0.08900
C695        C  0.55610662  0.54408850  0.25745735     0.06700
C696        C  0.53709549  0.58399320  0.23106647    -0.14000
S697        S  0.51550271  0.63633582  0.34106381    -0.30900
H698        H  0.55422323  0.54996165  0.37367503     0.10900
S699        S  0.57283666  0.51064464  0.22488892    -0.28000
H700        H  0.03336769  0.59437427  0.19373302     0.08100
H701        H  0.90539620  0.67099413  0.11185635     0.26600
H702        H  0.52733191  0.60745335  0.38787496     0.21400
H703        H  0.56050859  0.53937378  0.17799265     0.26700
H704        H  0.55768506  0.68881261  0.27245387     0.15500
C705        C  0.77945924  0.53014607  0.53220420    -0.11800
C706        C  0.76701426  0.50709137  0.48185325     0.14800
C707        C  0.78065074  0.51051133  0.45110356     0.01700
C708        C  0.80610369  0.53716650  0.47106310    -0.16100
C709        C  0.81907244  0.55931492  0.52207703    -0.10900
C710        C  0.80556488  0.55480960  0.55319224     0.08400
C711        C  0.73998065  0.47941343  0.46286657     0.09400
S712        S  0.76710459  0.48044037  0.38685729    -0.25200
H713        H  0.81625105  0.53956075  0.44676363     0.19700
S714        S  0.82135843  0.57527911  0.62126503    -0.30900
H715        H  0.76919083  0.52710226  0.55622539     0.10000
C716        C  0.73853543  0.43235215  0.48534613     0.03200
C717        C  0.71237427  0.40862124  0.46815841    -0.13200
C718        C  0.68752634  0.43125865  0.42923587    -0.08900
C719        C  0.68916446  0.47738848  0.40512219     0.06700
C720        C  0.71536715  0.50094256  0.42231043    -0.14000
S721        S  0.77007347  0.40251937  0.53600430    -0.30900
H722        H  0.71113284  0.37333997  0.48651368     0.10900
S723        S  0.65810133  0.50603089  0.35169692    -0.28000
H724        H  0.71675455  0.53667044  0.40475275     0.08100
H725        H  0.84860044  0.55861971  0.63433605     0.26600
H726        H  0.75697522  0.35963092  0.54404145     0.21400
H727        H  0.67170133  0.54674831  0.34155422     0.26700
H728        H  0.75460879  0.43822148  0.39744242     0.15500
C729        C  0.00604626  0.48407221  0.45121045    -0.11800
C730        C  0.52508572  0.49835091  0.50768513     0.14800
C731        C  0.55380681  0.48640449  0.53013810     0.01700
C732        C  0.56338186  0.45732632  0.50130063    -0.16100
C733        C  0.54521349  0.44000567  0.44922154    -0.10900
C734        C  0.51632110  0.45224951  0.42648933     0.08400
C735        C  0.01192204  0.52372491  0.53539720     0.09400
S736        S  0.57950605  0.50743072  0.59557025    -0.25200
H737        H  0.58570048  0.44950148  0.51985463     0.19700
S738        S  0.99144784  0.43481233  0.35664038    -0.30900
H739        H  0.98380111  0.49290747  0.43295006     0.10000
C740        C  0.00152219  0.57463200  0.52737874     0.03200
C741        C  0.98948589  0.59391472  0.55761162    -0.13200
C742        C  0.98801569  0.56330750  0.59599376    -0.08900
C743        C  0.00047429  0.51392815  0.60656335     0.06700
C744        C  0.01194527  0.49453990  0.57593776    -0.14000
S745        S  0.50281090  0.61164525  0.47934510    -0.30900
H746        H  0.97929165  0.63126958  0.54854459     0.10900
S747        S  0.00059050  0.47253229  0.65646355    -0.28000
H748        H  0.02056498  0.45584353  0.58314671     0.08100
H749        H  0.50294273  0.38083341  0.36748668     0.26600
H750        H  0.49043678  0.65579432  0.48804177     0.21400
H751        H  0.99820577  0.51232399  0.68744931     0.26700
H752        H  0.56571575  0.55350250  0.59529408     0.15500
loop_ 
_geom_bond_atom_site_label_1 
_geom_bond_atom_site_label_2 
_geom_bond_distance 
_geom_bond_site_symmetry_2 
_ccdc_geom_bond_type 
O1          Cr19   1.959       .  S
O1            C9   1.255       .  A
O2          Cr19   2.023       .  S
O2            C3   1.271       .  A
C3            O4   1.259       .  A
C3          C294   1.482       .  S
O4          Cr20   1.966       .  S
O5          Cr20   2.055       .  S
O5            C6   1.273       .  A
C6            O7   1.253       .  A
C6          C357   1.495       .  S
O7          Cr21   1.951       .  S
O8          Cr21   2.019       .  S
O8            C9   1.269       .  A
C9          C246   1.482       .  S
O10         Cr19   2.037       .  S
O10          C18   1.273       .  A
O11         Cr19   1.963       .  S
O11          C12   1.259       .  A
C12          O13   1.275       .  A
C12         C261   1.488       .  S
O13         Cr20   2.038       .  S
O14         Cr20   1.962       .  S
O14          C15   1.257       .  A
C15          O16   1.271       .  A
C15         C318   1.481       .  S
O16         Cr21   2.031       .  S
O17         Cr21   1.960       .  S
O17          C18   1.258       .  A
C18         C342   1.487       .  S
Cr19         O22   1.764       .  S
Cr20         O22   1.764       .  S
Cr21         O22   1.759       .  S
O23         Cr41   2.028       .  S
O23          C31   1.271       .  A
O24         Cr41   1.941       .  S
O24          C25   1.250       .  A
C25          O26   1.271       .  A
C25         C174   1.470       .  S
O26         Cr42   2.042       .  S
O27         Cr42   1.952       .  S
O27          C28   1.256       .  A
C28          O29   1.271       .  A
C28         C222   1.480       .  S
O29         Cr43   2.033       .  S
O30         Cr43   1.958       .  S
O30          C31   1.256       .  A
C31         C270   1.493   1_556  S
O32         Cr41   1.954       .  S
O32          C40   1.255       .  A
O33         Cr41   2.037       .  S
O33          C34   1.272       .  A
C34          O35   1.255       .  A
C34         C198   1.485   1_545  S
O35         Cr42   1.958       .  S
O36         Cr42   2.028       .  S
O36          C37   1.273       .  A
C37          O38   1.259       .  A
C37         C237   1.493       .  S
O38         Cr43   1.965       .  S
O39         Cr43   2.039       .  S
O39          C40   1.274       .  A
C40         C141   1.474       .  S
Cr41         O44   1.760       .  S
Cr42         O44   1.757       .  S
Cr43         O44   1.763       .  S
O45         Cr63   1.981       .  S
O45          C53   1.259       .  A
O46         Cr63   1.978       .  S
O46          C47   1.256       .  A
C47          O48   1.265       .  A
C47         C366   1.470       .  S
O48         Cr64   2.014       .  S
O49         Cr64   1.984       .  S
O49          C50   1.258       .  A
C50          O51   1.264       .  A
C50         C189   1.475       .  S
O51         Cr65   2.007       .  S
O52         Cr65   2.005       .  S
O52          C53   1.266       .  A
C53         C126   1.485       .  S
O54         Cr63   1.995       .  S
O54          C62   1.262       .  A
O55         Cr63   1.988       .  S
O55          C56   1.265       .  A
C56          O57   1.265       .  A
C56         C213   1.475       .  S
O57         Cr64   1.988       .  S
O58         Cr64   1.998       .  S
O58          C59   1.268       .  A
C59          O60   1.265       .  A
C59          C93   1.492       .  S
O60         Cr65   2.000       .  S
O61         Cr65   2.006       .  S
O61          C62   1.265       .  A
C62         C333   1.490       .  S
Cr63         O66   1.776       .  S
Cr64         O66   1.767       .  S
Cr65         O66   1.768       .  S
O67         Cr85   1.962       .  S
O67          C75   1.255   1_554  A
O68         Cr85   2.035       .  S
O68          C69   1.271       .  A
C69          O70   1.257       .  A
C69         C309   1.492       .  S
O70         Cr86   1.956       .  S
O71         Cr86   2.045       .  S
O71          C72   1.271       .  A
C72          O73   1.249       .  A
C72         C165   1.480       .  S
O73         Cr87   1.944       .  S
O74         Cr87   2.020   1_556  S
O74          C75   1.269       .  A
C75         C102   1.486       .  S
O76         Cr85   2.043       .  S
O76          C84   1.276       .  A
O77         Cr85   1.962       .  S
O77          C78   1.260       .  A
C78          O79   1.273       .  A
C78         C117   1.488       .  S
O79         Cr86   2.031       .  S
O80         Cr86   1.956       .  S
O80          C81   1.257       .  A
C81          O82   1.273       .  A
C81         C285   1.497   1_565  S
O82         Cr87   2.044       .  S
O83         Cr87   1.950       .  S
O83          C84   1.256       .  A
C84         C150   1.495       .  S
Cr85         O88   1.762       .  S
Cr86         O88   1.756       .  S
Cr87         O88   1.755       .  S
C89          C90   1.397       .  A
C89          C94   1.398       .  A
C89          H99   1.083       .  S
C90          C95   1.483       .  S
C90          C91   1.413       .  A
C91          C92   1.405       .  A
C91          S96   1.804       .  S
C92          C93   1.408       .  A
C92          H97   1.083       .  S
C93          C94   1.422       .  A
C94          S98   1.803       .  S
C95         C100   1.410       .  A
C95         C104   1.400       .  A
S96         H112   1.405       .  S
S98         H109   1.397       .  S
C100        C101   1.405       .  A
C100        S105   1.807       .  S
C101        C102   1.406       .  A
C101        H106   1.081       .  S
C102        C103   1.418       .  A
C103        C104   1.405       .  A
C103        S107   1.809       .  S
C104        H108   1.081       .  S
S105        H110   1.407       .  S
S107        H111   1.407       .  S
C113        C114   1.404       .  A
C113        C118   1.399       .  A
C113        H123   1.085       .  S
C114        C119   1.490       .  S
C114        C115   1.414       .  A
C115        C116   1.401       .  A
C115        S120   1.804       .  S
C116        C117   1.407       .  A
C116        H121   1.084       .  S
C117        C118   1.417       .  A
C118        S122   1.804       .  S
C119        C124   1.411       .  A
C119        C128   1.405       .  A
S120        H136   1.406       .  S
S122        H133   1.408       .  S
C124        C125   1.402       .  A
C124        S129   1.809       .  S
C125        C126   1.406       .  A
C125        H130   1.082       .  S
C126        C127   1.416       .  A
C127        C128   1.402       .  A
C127        S131   1.802       .  S
C128        H132   1.084       .  S
S129        H134   1.407       .  S
S131        H135   1.407       .  S
C137        C138   1.404   1_565  A
C137        C142   1.401   1_565  A
C137        H147   1.083       .  S
C138        C143   1.491   1_546  S
C138        C139   1.416   1_556  A
C139        C140   1.402   1_554  A
C139        S144   1.804       .  S
C140        C141   1.402       .  A
C140        H145   1.084   1_556  S
C141        C142   1.416       .  A
C142        S146   1.808       .  S
C143        C148   1.413       .  A
C143        C152   1.399   1_565  A
S144        H160   1.407   1_545  S
S146        H157   1.403       .  S
C148        C149   1.409       .  A
C148        S153   1.806   1_554  S
C149        C150   1.408       .  A
C149        H154   1.083       .  S
C150        C151   1.423       .  A
C151        C152   1.397   1_565  A
C151        S155   1.805   1_565  S
C152        H156   1.084       .  S
S153        H158   1.407       .  S
S155        H159   1.408   1_545  S
C161        C538   1.407   1_454  A
C161        C542   1.404   1_455  A
C161        H171   1.083       .  S
C162        C543   1.475   1_565  S
C162        C163   1.404       .  A
C162        C537   1.407   1_556  A
C163        C164   1.390       .  A
C163        S168   1.805   1_565  S
C164        C165   1.410   1_556  A
C164        H169   1.084       .  S
C165        C166   1.412       .  A
C166        C537   1.404       .  A
C166        S546   1.801       .  S
C167        C538   1.473   1_545  S
C167        C172   1.405   1_655  A
C167        C176   1.403   1_545  A
S168        H184   1.406       .  S
S170        C542   1.801   1_455  S
S170        H557   1.407   1_455  S
C172        C173   1.398       .  A
C172        S177   1.807   1_556  S
C173        C174   1.406       .  A
C173        H178   1.082       .  S
C174        C175   1.411       .  A
C175        C176   1.402   1_445  A
C175        S179   1.806   1_545  S
C176        H556   1.082       .  S
S177        H182   1.406       .  S
S179        H183   1.407   1_455  S
H180        C552   1.084       .  S
H181        S546   1.407       .  S
C185        C190   1.397       .  A
C185        C562   1.402       .  A
C185        H195   1.083       .  S
C186        C191   1.478   1_655  S
C186        C187   1.412       .  A
C186        C561   1.402       .  A
C187        C564   1.402       .  A
C187        S192   1.804   1_655  S
C188        C189   1.404       .  A
C188        C563   1.406       .  A
C188        H193   1.083       .  S
C189        C190   1.413       .  A
C190        S194   1.805       .  S
C191        C196   1.404       .  A
C191        C200   1.404       .  A
S192        H208   1.404       .  S
S194        H205   1.406       .  S
C196        C197   1.399       .  A
C196        S201   1.808   1_455  S
C197        C198   1.410       .  A
C197        H202   1.083   1_565  S
C198        C199   1.414       .  A
C199        C200   1.404       .  A
C199        S203   1.802       .  S
C200        H204   1.084       .  S
S201        H206   1.407       .  S
S203        H207   1.408       .  S
C209        C210   1.405       .  A
C209        C214   1.404       .  A
C209        H219   1.080       .  S
C210        C591   1.481       .  S
C210        C211   1.411       .  A
C211        C212   1.397       .  A
C211        S216   1.805       .  S
C212        C213   1.405       .  A
C212        H217   1.083       .  S
C213        C214   1.412       .  A
C214        S218   1.808       .  S
C215        C586   1.478       .  S
C215        C224   1.404   1_655  A
C215        C596   1.406       .  A
S216        H608   1.405       .  S
S218        H229   1.407       .  S
C220        C591   1.407       .  A
C220        C597   1.402       .  A
C220        S225   1.807       .  S
C221        C222   1.408       .  A
C221        C596   1.400   1_455  A
C221        H226   1.082       .  S
C222        C223   1.414       .  A
C223        C224   1.401       .  A
C223        S227   1.800       .  S
C224        H228   1.082       .  S
S225        H230   1.407       .  S
S227        H231   1.407       .  S
H232        S592   1.405   1_455  S
C233        C234   1.398       .  A
C233        C238   1.403       .  A
C233        H243   1.083       .  S
C234        C239   1.481       .  S
C234        C235   1.411       .  A
C235        C236   1.400       .  A
C235        S240   1.805       .  S
C236        C237   1.408       .  A
C236        H241   1.084       .  S
C237        C238   1.422       .  A
C238        S242   1.809       .  S
C239        C244   1.410       .  A
C239        C248   1.400       .  A
S240        H256   1.406       .  S
S242        H253   1.406       .  S
C244        C245   1.404       .  A
C244        S249   1.807       .  S
C245        C246   1.405       .  A
C245        H250   1.084       .  S
C246        C247   1.418       .  A
C247        C248   1.398       .  A
C247        S251   1.804       .  S
C248        H252   1.086       .  S
S249        H254   1.407       .  S
S251        H255   1.407       .  S
C257        C258   1.402       .  A
C257        C262   1.402       .  A
C257        H267   1.083       .  S
C258        C263   1.487       .  S
C258        C259   1.413       .  A
C259        C260   1.403       .  A
C259        S264   1.803       .  S
C260        C261   1.407       .  A
C260        H265   1.083       .  S
C261        C262   1.418       .  A
C262        S266   1.804       .  S
C263        C268   1.406       .  A
C263        C272   1.406       .  A
S264        H280   1.405       .  S
S266        H277   1.408       .  S
C268        C269   1.401       .  A
C268        S273   1.808       .  S
C269        C270   1.412       .  A
C269        H274   1.081   1_554  S
C270        C271   1.415       .  A
C271        C272   1.407       .  A
C271        S275   1.800       .  S
C272        H276   1.083       .  S
S273        H278   1.407   1_554  S
S275        H279   1.407       .  S
C281        C282   1.404       .  A
C281        C286   1.404       .  A
C281        H291   1.084       .  S
C282        C663   1.485       .  S
C282        C283   1.409       .  A
C283        C284   1.397       .  A
C283        S664   1.805       .  S
C284        C285   1.412       .  A
C284        H289   1.083   1_545  S
C285        C286   1.419       .  A
C286        S290   1.800       .  S
C287        C658   1.484   1_455  S
C287        C292   1.410       .  A
C287        C296   1.403       .  A
S288        C659   1.805   1_455  S
S288        H304   1.406       .  S
S290        H301   1.408       .  S
C292        C293   1.402       .  A
C292        S297   1.808       .  S
C293        C294   1.406       .  A
C293        H298   1.082       .  S
C294        C295   1.416       .  A
C295        C296   1.401       .  A
C295        S299   1.804       .  S
C296        H676   1.083   1_455  S
S297        H302   1.407       .  S
S299        H303   1.408       .  S
H300        C672   1.085       .  S
C305        C310   1.402       .  A
C305        C682   1.404       .  A
C305        H315   1.084       .  S
C306        C311   1.487       .  S
C306        C681   1.406   1_455  A
C306        C683   1.410       .  A
C307        C308   1.395       .  A
C307        C682   1.407       .  A
C307        S688   1.805       .  S
C308        C309   1.412       .  A
C308        H313   1.084       .  S
C309        C310   1.418       .  A
C310        S314   1.801       .  S
C311        C316   1.411       .  A
C311        C320   1.404       .  A
S312        C683   1.805       .  S
S312        H328   1.406       .  S
S314        H325   1.408       .  S
C316        C317   1.405       .  A
C316        S321   1.808       .  S
C317        C318   1.407       .  A
C317        H322   1.081       .  S
C318        C319   1.412       .  A
C319        C320   1.402       .  A
C319        S323   1.808       .  S
C320        H700   1.080       .  S
S321        H326   1.407       .  S
S323        H327   1.407       .  S
H324        C696   1.082       .  S
C329        C330   1.404       .  A
C329        C334   1.404       .  A
C329        H339   1.084       .  S
C330        C335   1.487       .  S
C330        C331   1.410       .  A
C331        C332   1.401       .  A
C331        S336   1.804       .  S
C332        C333   1.408       .  A
C332        H337   1.084       .  S
C333        C334   1.417       .  A
C334        S338   1.800       .  S
C335        C340   1.411       .  A
C335        C344   1.401       .  A
S336        H352   1.406       .  S
S338        H349   1.407       .  S
C340        C341   1.407       .  A
C340        S345   1.806       .  S
C341        C342   1.406       .  A
C341        H346   1.083       .  S
C342        C343   1.418       .  A
C343        C344   1.404       .  A
C343        S347   1.810       .  S
C344        H348   1.082       .  S
S345        H350   1.407       .  S
S347        H351   1.406       .  S
C353        C730   1.409       .  A
C353        C734   1.410       .  A
C353        H363   1.083       .  S
C354        C735   1.485       .  S
C354        C355   1.406       .  A
C354        C729   1.408       .  A
C355        C356   1.393       .  A
C355        S360   1.805       .  S
C356        C357   1.412       .  A
C356        H361   1.084       .  S
C357        C358   1.417       .  A
C358        C729   1.410       .  A
C358        S738   1.800   1_455  S
C359        C730   1.485       .  S
C359        C364   1.411       .  A
C359        C368   1.402       .  A
S360        H376   1.406       .  S
S362        C734   1.800       .  S
S362        H749   1.407       .  S
C364        C365   1.408       .  A
C364        S745   1.805       .  S
C365        C366   1.405       .  A
C365        H370   1.083       .  S
C366        C367   1.412       .  A
C367        C368   1.397       .  A
C367        S371   1.806       .  S
C368        H372   1.084       .  S
S369        C740   1.804       .  S
S369        H374   1.407   1_455  S
S371        H375   1.406       .  S
H373        S738   1.407   1_455  S
O377       Cr395   1.963       .  S
O377        C385   1.256       .  A
O378       Cr395   2.025       .  S
O378        C379   1.271       .  A
C379        O380   1.259       .  A
C379        C670   1.484       .  S
O380       Cr396   1.966       .  S
O381       Cr396   2.061       .  S
O381        C382   1.274       .  A
C382        O383   1.250       .  A
C382        C733   1.494       .  S
O383       Cr397   1.946       .  S
O384       Cr397   2.016       .  S
O384        C385   1.268       .  A
C385        C622   1.483       .  S
O386       Cr395   2.036       .  S
O386        C394   1.274       .  A
O387       Cr395   1.963       .  S
O387        C388   1.260       .  A
C388        O389   1.275       .  A
C388        C637   1.486       .  S
O389       Cr396   2.040       .  S
O390       Cr396   1.960       .  S
O390        C391   1.257       .  A
C391        O392   1.270       .  A
C391        C694   1.479       .  S
O392       Cr397   2.026       .  S
O393       Cr397   1.958       .  S
O393        C394   1.257       .  A
C394        C718   1.483       .  S
Cr395       O398   1.761       .  S
Cr396       O398   1.763       .  S
Cr397       O398   1.756       .  S
O399       Cr417   2.037       .  S
O399        C407   1.273       .  A
O400       Cr417   1.941       .  S
O400        C401   1.251       .  A
C401        O402   1.272       .  A
C401        C550   1.474       .  S
O402       Cr418   2.044       .  S
O403       Cr418   1.954       .  S
O403        C404   1.255       .  A
C404        O405   1.271       .  A
C404        C598   1.478       .  S
O405       Cr419   2.033       .  S
O406       Cr419   1.949       .  S
O406        C407   1.255       .  A
C407        C646   1.498   1_556  S
O408       Cr417   1.960       .  S
O408        C416   1.256       .  A
O409       Cr417   2.043       .  S
O409        C410   1.274       .  A
C410        O411   1.256       .  A
C410        C574   1.491   1_545  S
O411       Cr418   1.959       .  S
O412       Cr418   2.035       .  S
O412        C413   1.274       .  A
C413        O414   1.257       .  A
C413        C613   1.495       .  S
O414       Cr419   1.960       .  S
O415       Cr419   2.037       .  S
O415        C416   1.272       .  A
C416        C517   1.476       .  S
Cr417       O420   1.761       .  S
Cr418       O420   1.759       .  S
Cr419       O420   1.763       .  S
O421       Cr439   1.984       .  S
O421        C429   1.259       .  A
O422       Cr439   1.977       .  S
O422        C423   1.256       .  A
C423        O424   1.266       .  A
C423        C742   1.470       .  S
O424       Cr440   2.014       .  S
O425       Cr440   1.982       .  S
O425        C426   1.257       .  A
C426        O427   1.262       .  A
C426        C565   1.467       .  S
O427       Cr441   2.001       .  S
O428       Cr441   2.001       .  S
O428        C429   1.264       .  A
C429        C502   1.485       .  S
O430       Cr439   1.997       .  S
O430        C438   1.264       .  A
O431       Cr439   1.991       .  S
O431        C432   1.266       .  A
C432        O433   1.264       .  A
C432        C589   1.477       .  S
O433       Cr440   1.982       .  S
O434       Cr440   2.001       .  S
O434        C435   1.269       .  A
C435        O436   1.265       .  A
C435        C469   1.496       .  S
O436       Cr441   2.003       .  S
O437       Cr441   1.998       .  S
O437        C438   1.265       .  A
C438        C709   1.488       .  S
Cr439       O442   1.775       .  S
Cr440       O442   1.767       .  S
Cr441       O442   1.768       .  S
O443       Cr461   1.967       .  S
O443        C451   1.256   1_554  A
O444       Cr461   2.039       .  S
O444        C445   1.272       .  A
C445        O446   1.258       .  A
C445        C685   1.495       .  S
O446       Cr462   1.958       .  S
O447       Cr462   2.045       .  S
O447        C448   1.270       .  A
C448        O449   1.249       .  A
C448        C541   1.483       .  S
O449       Cr463   1.943       .  S
O450       Cr463   2.019   1_556  S
O450        C451   1.269       .  A
C451        C478   1.488       .  S
O452       Cr461   2.045       .  S
O452        C460   1.277       .  A
O453       Cr461   1.961       .  S
O453        C454   1.259       .  A
C454        O455   1.273       .  A
C454        C493   1.485       .  S
O455       Cr462   2.029       .  S
O456       Cr462   1.956       .  S
O456        C457   1.257       .  A
C457        O458   1.273       .  A
C457        C661   1.496   1_565  S
O458       Cr463   2.042       .  S
O459       Cr463   1.950       .  S
O459        C460   1.256       .  A
C460        C526   1.495       .  S
Cr461       O464   1.762       .  S
Cr462       O464   1.757       .  S
Cr463       O464   1.754       .  S
C465        C466   1.398       .  A
C465        C470   1.399       .  A
C465        H475   1.085       .  S
C466        C471   1.487       .  S
C466        C467   1.413       .  A
C467        C468   1.405       .  A
C467        S472   1.804       .  S
C468        C469   1.408       .  A
C468        H473   1.084       .  S
C469        C470   1.424       .  A
C470        S474   1.803       .  S
C471        C476   1.410       .  A
C471        C480   1.401       .  A
S472        H488   1.406       .  S
S474        H485   1.399       .  S
C476        C477   1.404       .  A
C476        S481   1.807       .  S
C477        C478   1.406       .  A
C477        H482   1.084       .  S
C478        C479   1.418       .  A
C479        C480   1.406       .  A
C479        S483   1.808       .  S
C480        H484   1.085       .  S
S481        H486   1.407       .  S
S483        H487   1.407       .  S
C489        C490   1.404       .  A
C489        C494   1.398       .  A
C489        H499   1.084       .  S
C490        C495   1.489       .  S
C490        C491   1.414       .  A
C491        C492   1.401       .  A
C491        S496   1.804       .  S
C492        C493   1.407       .  A
C492        H497   1.084       .  S
C493        C494   1.416       .  A
C494        S498   1.804       .  S
C495        C500   1.411       .  A
C495        C504   1.406       .  A
S496        H512   1.406       .  S
S498        H509   1.408       .  S
C500        C501   1.401       .  A
C500        S505   1.809       .  S
C501        C502   1.406       .  A
C501        H506   1.081       .  S
C502        C503   1.416       .  A
C503        C504   1.402       .  A
C503        S507   1.802       .  S
C504        H508   1.083       .  S
S505        H510   1.407       .  S
S507        H511   1.407       .  S
C513        C514   1.404       .  A
C513        C518   1.400       .  A
C513        H523   1.085   1_545  S
C514        C519   1.493   1_546  S
C514        C515   1.417   1_556  A
C515        C516   1.404   1_554  A
C515        S520   1.804       .  S
C516        C517   1.403       .  A
C516        H521   1.085   1_556  S
C517        C518   1.414       .  A
C518        S522   1.807       .  S
C519        C524   1.415       .  A
C519        C528   1.400   1_565  A
S520        H536   1.406   1_545  S
S522        H533   1.402       .  S
C524        C525   1.408       .  A
C524        S529   1.807   1_554  S
C525        C526   1.406       .  A
C525        H530   1.082       .  S
C526        C527   1.423       .  A
C527        C528   1.399   1_565  A
C527        S531   1.805   1_565  S
C528        H532   1.084       .  S
S529        H534   1.407       .  S
S531        H535   1.408   1_545  S
C537        H547   1.083       .  S
C538        C539   1.404       .  A
C539        C540   1.389       .  A
C539        S544   1.806       .  S
C540        C541   1.411   1_556  A
C540        H545   1.083       .  S
C541        C542   1.413       .  A
C543        C548   1.405       .  A
C543        C552   1.403   1_545  A
S544        H560   1.406   1_565  S
C548        C549   1.397       .  A
C548        S553   1.807   1_556  S
C549        C550   1.406       .  A
C549        H554   1.085       .  S
C550        C551   1.412       .  A
C551        C552   1.404   1_545  A
C551        S555   1.806   1_545  S
S553        H558   1.405       .  S
S555        H559   1.406       .  S
C561        C566   1.398       .  A
C561        H571   1.084       .  S
C562        C567   1.486       .  S
C562        C563   1.416       .  A
C563        S568   1.804       .  S
C564        C565   1.404       .  A
C564        H569   1.084       .  S
C565        C566   1.411       .  A
C566        S570   1.804       .  S
C567        C572   1.407       .  A
C567        C576   1.406       .  A
S568        H584   1.405       .  S
S570        H581   1.406       .  S
C572        C573   1.402       .  A
C572        S577   1.808       .  S
C573        C574   1.412       .  A
C573        H578   1.083   1_565  S
C574        C575   1.413       .  A
C575        C576   1.404       .  A
C575        S579   1.801       .  S
C576        H580   1.084       .  S
S577        H582   1.406       .  S
S579        H583   1.408       .  S
C585        C586   1.404       .  A
C585        C590   1.405       .  A
C585        H595   1.085       .  S
C586        C587   1.410       .  A
C587        C588   1.395       .  A
C587        S592   1.806       .  S
C588        C589   1.406       .  A
C588        H593   1.086       .  S
C589        C590   1.413       .  A
C590        S594   1.806       .  S
C591        C600   1.404       .  A
S594        H605   1.407       .  S
C596        S601   1.806       .  S
C597        C598   1.408       .  A
C597        H602   1.082       .  S
C598        C599   1.412       .  A
C599        C600   1.399       .  A
C599        S603   1.800       .  S
C600        H604   1.083       .  S
S601        H606   1.407       .  S
S603        H607   1.406       .  S
C609        C610   1.398       .  A
C609        C614   1.403       .  A
C609        H619   1.082       .  S
C610        C615   1.482       .  S
C610        C611   1.412       .  A
C611        C612   1.402       .  A
C611        S616   1.805       .  S
C612        C613   1.409       .  A
C612        H617   1.083       .  S
C613        C614   1.423       .  A
C614        S618   1.810       .  S
C615        C620   1.410       .  A
C615        C624   1.400       .  A
S616        H632   1.405       .  S
S618        H629   1.406       .  S
C620        C621   1.405       .  A
C620        S625   1.806       .  S
C621        C622   1.407       .  A
C621        H626   1.084       .  S
C622        C623   1.417       .  A
C623        C624   1.398       .  A
C623        S627   1.803       .  S
C624        H628   1.085       .  S
S625        H630   1.407       .  S
S627        H631   1.407       .  S
C633        C634   1.402       .  A
C633        C638   1.402       .  A
C633        H643   1.086       .  S
C634        C639   1.485       .  S
C634        C635   1.413       .  A
C635        C636   1.402       .  A
C635        S640   1.802       .  S
C636        C637   1.406       .  A
C636        H641   1.086       .  S
C637        C638   1.417       .  A
C638        S642   1.804       .  S
C639        C644   1.403       .  A
C639        C648   1.406       .  A
S640        H656   1.404       .  S
S642        H653   1.408       .  S
C644        C645   1.400       .  A
C644        S649   1.808       .  S
C645        C646   1.414       .  A
C645        H650   1.079   1_554  S
C646        C647   1.417       .  A
C647        C648   1.408       .  A
C647        S651   1.799       .  S
C648        H652   1.081       .  S
S649        H654   1.407   1_554  S
S651        H655   1.408       .  S
C657        C658   1.404       .  A
C657        C662   1.403       .  A
C657        H667   1.083       .  S
C658        C659   1.408       .  A
C659        C660   1.397       .  A
C660        C661   1.413       .  A
C660        H665   1.082   1_545  S
C661        C662   1.419       .  A
C662        S666   1.800       .  S
C663        C668   1.411       .  A
C663        C672   1.403       .  A
S664        H680   1.406       .  S
S666        H677   1.408       .  S
C668        C669   1.403       .  A
C668        S673   1.808       .  S
C669        C670   1.407       .  A
C669        H674   1.084       .  S
C670        C671   1.416       .  A
C671        C672   1.400       .  A
C671        S675   1.804       .  S
S673        H678   1.407       .  S
S675        H679   1.408       .  S
C681        C686   1.404       .  A
C681        H691   1.084       .  S
C682        C687   1.480       .  S
C683        C684   1.395   1_455  A
C684        C685   1.411       .  A
C684        H689   1.084       .  S
C685        C686   1.419       .  A
C686        S690   1.801       .  S
C687        C692   1.409       .  A
C687        C696   1.402       .  A
S688        H704   1.406       .  S
S690        H701   1.408       .  S
C692        C693   1.402       .  A
C692        S697   1.808       .  S
C693        C694   1.406       .  A
C693        H698   1.082       .  S
C694        C695   1.414       .  A
C695        C696   1.402       .  A
C695        S699   1.809       .  S
S697        H702   1.407       .  S
S699        H703   1.407       .  S
C705        C706   1.403       .  A
C705        C710   1.402       .  A
C705        H715   1.085       .  S
C706        C711   1.485       .  S
C706        C707   1.411       .  A
C707        C708   1.400       .  A
C707        S712   1.804       .  S
C708        C709   1.408       .  A
C708        H713   1.086       .  S
C709        C710   1.416       .  A
C710        S714   1.800       .  S
C711        C716   1.410       .  A
C711        C720   1.402       .  A
S712        H728   1.406       .  S
S714        H725   1.407       .  S
C716        C717   1.405       .  A
C716        S721   1.806       .  S
C717        C718   1.404       .  A
C717        H722   1.082       .  S
C718        C719   1.417       .  A
C719        C720   1.405       .  A
C719        S723   1.810       .  S
C720        H724   1.083       .  S
S721        H726   1.407       .  S
S723        H727   1.407       .  S
C729        H739   1.085   1_455  S
C730        C731   1.406       .  A
C731        C732   1.392       .  A
C731        S736   1.805       .  S
C732        C733   1.413       .  A
C732        H737   1.083       .  S
C733        C734   1.415       .  A
C735        C740   1.411       .  A
C735        C744   1.402       .  A
S736        H752   1.406       .  S
C740        C741   1.409   1_455  A
C741        C742   1.405       .  A
C741        H746   1.084       .  S
C742        C743   1.412   1_655  A
C743        C744   1.396       .  A
C743        S747   1.806       .  S
C744        H748   1.085       .  S
S745        H750   1.407       .  S
S747        H751   1.407   1_455  S
