geometry optimzed in LAMMPS
_audit_creation_date              2020-12-01 
_audit_creation_method            'lammps2cif' 
_symmetry_space_group_name_H-M    'P1' 
_symmetry_Int_Tables_number       1 
_symmetry_cell_setting            triclinic 
loop_ 
_symmetry_equiv_pos_as_xyz 
  x,y,z 
_cell_length_a                    50.74786533 
_cell_length_b                    51.9540755344777 
_cell_length_c                    52.38301522209108 
_cell_angle_alpha                 89.92475623058377 
_cell_angle_beta                  89.9453316217923 
_cell_angle_gamma                 90.08450992534594 
loop_ 
_atom_site_label 
_atom_site_type_symbol 
_atom_site_fract_x 
_atom_site_fract_y 
_atom_site_fract_z 
_atom_site_charge 
Zn1        Zn  0.64201651  0.17013837  0.84689532     1.49700
Zn2        Zn  0.60274355  0.12562726  0.84943021     1.49400
Zn3        Zn  0.64984753  0.12812060  0.89058897     1.49100
Zn4        Zn  0.60035659  0.16789280  0.89242559     1.49500
O5          O  0.62381522  0.14772864  0.87057812    -1.82100
O6          O  0.64259929  0.15748664  0.81036759    -0.72700
O7          O  0.61026753  0.08974298  0.85760344    -0.72500
O8          O  0.68756251  0.14292097  0.88500223    -0.72000
O9          O  0.61065192  0.12856804  0.81249556    -0.72700
O10         O  0.67878985  0.17472278  0.85784581    -0.72300
O11         O  0.64543324  0.08924433  0.88304156    -0.72900
O12         O  0.60691046  0.15869839  0.92953516    -0.72300
O13         O  0.56454732  0.13030748  0.85458160    -0.73000
O14         O  0.64183885  0.13279867  0.92824853    -0.72400
O15         O  0.56131292  0.15986152  0.88484613    -0.72900
O16         O  0.60888640  0.20603464  0.88715152    -0.72800
O17         O  0.62808776  0.20559728  0.84886832    -0.72600
C18         C  0.62776746  0.14091829  0.79975776     0.79200
C19         C  0.62764291  0.07761512  0.87008565     0.79700
C20         C  0.69461270  0.16292623  0.87240356     0.78600
C21         C  0.62422196  0.14495234  0.94072758     0.79000
C22         C  0.55059661  0.14393383  0.86940048     0.80200
C23         C  0.61893041  0.21772169  0.86797843     0.79200
Zn24       Zn  0.64118683  0.42014114  0.83921476     1.49700
Zn25       Zn  0.60280116  0.37343937  0.84461406     1.49400
Zn26       Zn  0.65166052  0.37944262  0.88361601     1.49100
Zn27       Zn  0.60041889  0.41646137  0.88623164     1.49500
O28         O  0.62411777  0.39733927  0.86378214    -1.82100
O29         O  0.63631254  0.40880596  0.80247676    -0.72700
O30         O  0.61389840  0.33837248  0.85314782    -0.72500
O31         O  0.68786866  0.39633561  0.87786289    -0.72000
O32         O  0.60823440  0.37650049  0.80691274    -0.72700
O33         O  0.67952937  0.42306911  0.84597107    -0.72300
O34         O  0.65013635  0.34050660  0.87695841    -0.72900
O35         O  0.60844311  0.40776631  0.92282146    -0.72300
O36         O  0.56437320  0.37493838  0.85348656    -0.73000
O37         O  0.64438853  0.38336058  0.92122113    -0.72400
O38         O  0.56167379  0.40649536  0.88165507    -0.72900
O39         O  0.60710383  0.45464682  0.88132298    -0.72800
O40         O  0.63090392  0.45657605  0.84553264    -0.72600
C41         C  0.62270943  0.39060656  0.79284088     0.79200
C42         C  0.63248861  0.32753845  0.86520704     0.79700
C43         C  0.69525633  0.41411797  0.86253647     0.78600
C44         C  0.62636999  0.39471336  0.93378788     0.79000
C45         C  0.55080888  0.38855692  0.86875970     0.80200
C46         C  0.61968833  0.46742065  0.86439551     0.79200
Zn47       Zn  0.64919384  0.08040621  0.60129069     1.49700
Zn48       Zn  0.60979767  0.08699268  0.64811650     1.49400
Zn49       Zn  0.66142704  0.12395558  0.64205387     1.49100
Zn50       Zn  0.61299168  0.12814186  0.60323205     1.49500
O51         O  0.63334622  0.10495204  0.62419345    -1.82100
O52         O  0.63595887  0.04550463  0.60821214    -0.72700
O53         O  0.61849431  0.09888157  0.68371002    -0.72500
O54         O  0.69734864  0.10675591  0.63623826    -0.72000
O55         O  0.61485319  0.04774785  0.64541732    -0.72700
O56         O  0.68756184  0.07703432  0.60744169    -0.72300
O57         O  0.65427425  0.12334731  0.67975449    -0.72900
O58         O  0.62419246  0.16377915  0.60911133    -0.72300
O59         O  0.57101640  0.09728213  0.64207667    -0.73000
O60         O  0.66027685  0.16242764  0.63314874    -0.72400
O61         O  0.57513393  0.12687110  0.61182882    -0.72900
O62         O  0.61637793  0.12168582  0.56583148    -0.72800
O63         O  0.64319656  0.08825842  0.56450962    -0.72600
C64         C  0.62484968  0.03474569  0.62712697     0.79200
C65         C  0.63614581  0.11338821  0.69336902     0.79700
C66         C  0.70407845  0.08775646  0.62217701     0.78600
C67         C  0.64286816  0.17498729  0.62070966     0.79000
C68         C  0.56088036  0.11413397  0.62722925     0.80200
C69         C  0.62936026  0.10514679  0.55323561     0.79200
Zn70       Zn  0.65168599  0.33178931  0.59267420     1.49700
Zn71       Zn  0.61384508  0.37824023  0.59524429     1.49400
Zn72       Zn  0.61204357  0.33598391  0.63924739     1.49100
Zn73       Zn  0.66169909  0.37432191  0.63528619     1.49500
O74         O  0.63477307  0.35531489  0.61591432    -1.82100
O75         O  0.64864930  0.34225359  0.55553349    -0.72700
O76         O  0.57581381  0.37545356  0.60400148    -0.72500
O77         O  0.62017503  0.29757320  0.63624595    -0.72000
O78         O  0.61863288  0.37319030  0.55726514    -0.72700
O79         O  0.63829287  0.29620832  0.59756826    -0.72300
O80         O  0.57325938  0.34423033  0.63274373    -0.72900
O81         O  0.65237733  0.37400339  0.67250465    -0.72300
O82         O  0.62360505  0.41398359  0.60365672    -0.73000
O83         O  0.61805344  0.34782834  0.67548766    -0.72400
O84         O  0.66005829  0.41269991  0.62723398    -0.72900
O85         O  0.69808297  0.35723973  0.63155058    -0.72800
O86         O  0.68920613  0.32754657  0.60227265    -0.72600
C87         C  0.63385293  0.35861753  0.54448045     0.79200
C88         C  0.56229692  0.36160466  0.61914796     0.79700
C89         C  0.62973727  0.28493786  0.61749555     0.78600
C90         C  0.63430449  0.36342769  0.68569062     0.79000
C91         C  0.64183726  0.42524365  0.61593418     0.80200
C92         C  0.70493930  0.33783690  0.61809817     0.79200
Zn93       Zn  0.39090436  0.08933174  0.85241723     1.49700
Zn94       Zn  0.38674119  0.13056470  0.89649158     1.49400
Zn95       Zn  0.33820818  0.12604318  0.85751915     1.49100
Zn96       Zn  0.35024711  0.08303006  0.89820786     1.49500
O97         O  0.36650112  0.10734898  0.87546872    -1.82100
O98         O  0.42921483  0.10151672  0.85761173    -0.72700
O99         O  0.37501009  0.16587572  0.89110373    -0.72500
O100        O  0.34608886  0.12433449  0.82001016    -0.72000
O101        O  0.42458401  0.13080715  0.88788492    -0.72700
O102        O  0.38136334  0.09920879  0.81647716    -0.72300
O103        O  0.33972604  0.16485980  0.86599133    -0.72900
O104        O  0.31216435  0.07891047  0.89184167    -0.72300
O105        O  0.38377170  0.12345947  0.93359760    -0.73000
O106        O  0.30166214  0.10872770  0.86344586    -0.72400
O107        O  0.35550234  0.09109293  0.93464779    -0.72900
O108        O  0.36427265  0.04854090  0.89264740    -0.72800
O109        O  0.38804028  0.05002105  0.85702407    -0.72600
C110        C  0.43902387  0.11869560  0.87225865     0.79200
C111        C  0.35679250  0.17727282  0.87908696     0.79700
C112        C  0.36375640  0.11351920  0.80648619     0.78600
C113        C  0.29524664  0.08951959  0.87752927     0.79000
C114        C  0.37006572  0.10724080  0.94598454     0.80200
C115        C  0.37725118  0.03741065  0.87521768     0.79200
Zn116      Zn  0.34020744  0.37693274  0.86383498     1.49700
Zn117      Zn  0.38978971  0.33810873  0.86130594     1.49400
Zn118      Zn  0.38710096  0.38004765  0.90552461     1.49100
Zn119      Zn  0.34806040  0.33407372  0.90644293     1.49500
O120        O  0.36639657  0.35754097  0.88392877    -1.82100
O121        O  0.34926931  0.37459855  0.82680544    -0.72700
O122        O  0.42846779  0.34723252  0.86805718    -0.72500
O123        O  0.37821738  0.41622894  0.89717261    -0.72000
O124        O  0.38349594  0.34836451  0.82462279    -0.72700
O125        O  0.34399861  0.41552585  0.87049021    -0.72300
O126        O  0.42569115  0.37724617  0.89796015    -0.72900
O127        O  0.34946869  0.34412175  0.94366027    -0.72300
O128        O  0.38217060  0.29967451  0.86490793    -0.73000
O129        O  0.38074647  0.37404936  0.94320440    -0.72400
O130        O  0.36109410  0.29828959  0.90217697    -0.72900
O131        O  0.31104679  0.33034870  0.89533103    -0.72800
O132        O  0.30288210  0.36119121  0.86707579    -0.72600
C133        C  0.36698049  0.36328415  0.81387299     0.79200
C134        C  0.43935553  0.36404083  0.88240695     0.79700
C135        C  0.36148805  0.42772069  0.88320143     0.78600
C136        C  0.36458014  0.35975427  0.95530627     0.79000
C137        C  0.37122955  0.28706018  0.88298694     0.80200
C138        C  0.29567124  0.34121478  0.87958298     0.79200
Zn139      Zn  0.35817723  0.16713487  0.65221590     1.49700
Zn140      Zn  0.39631909  0.12168904  0.64825720     1.49400
Zn141      Zn  0.34970781  0.12678030  0.60677073     1.49100
Zn142      Zn  0.40040833  0.16557941  0.60688377     1.49500
O143        O  0.37602139  0.14521407  0.62780510    -1.82100
O144        O  0.35934486  0.15475188  0.68856530    -0.72700
O145        O  0.38701669  0.08644773  0.63943381    -0.72500
O146        O  0.31249700  0.14312113  0.61169597    -0.72000
O147        O  0.38854645  0.12359459  0.68527806    -0.72700
O148        O  0.32084367  0.17054725  0.64308763    -0.72300
O149        O  0.35180561  0.08737309  0.61414817    -0.72900
O150        O  0.39283071  0.15920560  0.56935930    -0.72300
O151        O  0.43480660  0.12505564  0.64335457    -0.73000
O152        O  0.35889676  0.13219485  0.56939643    -0.72400
O153        O  0.43903667  0.15542395  0.61388477    -0.72900
O154        O  0.39418111  0.20376355  0.61382762    -0.72800
O155        O  0.37065799  0.20309153  0.64962903    -0.72600
C156        C  0.37278680  0.13682807  0.69866106     0.79200
C157        C  0.36901073  0.07497157  0.62717437     0.79700
C158        C  0.30508889  0.16100812  0.62691025     0.78600
C159        C  0.37591437  0.14560319  0.55734283     0.79000
C160        C  0.44919914  0.13872062  0.62888995     0.80200
C161        C  0.38234077  0.21542237  0.63196846     0.79200
Zn162      Zn  0.36216222  0.41856150  0.65977841     1.49700
Zn163      Zn  0.40236547  0.41505452  0.61335066     1.49400
Zn164      Zn  0.39915096  0.37103679  0.65486135     1.49100
Zn165      Zn  0.35139870  0.37771177  0.61525099     1.49500
O166        O  0.37866931  0.39547912  0.63543382    -1.82100
O167        O  0.37345713  0.45511619  0.65437681    -0.72700
O168        O  0.44077869  0.40490910  0.61897546    -0.72500
O169        O  0.39256985  0.37336239  0.69233789    -0.72000
O170        O  0.39543595  0.45336236  0.61778939    -0.72700
O171        O  0.36570241  0.40659313  0.69638849    -0.72300
O172        O  0.43760563  0.37331786  0.64725611    -0.72900
O173        O  0.35316687  0.33872990  0.62094423    -0.72300
O174        O  0.39471781  0.40698107  0.57659116    -0.73000
O175        O  0.38874241  0.33582066  0.64564810    -0.72400
O176        O  0.35882264  0.38253790  0.57790232    -0.72900
O177        O  0.31496926  0.39381838  0.62137632    -0.72800
O178        O  0.32408383  0.42146978  0.65230178    -0.72600
C179        C  0.38363059  0.46627361  0.63507104     0.79200
C180        C  0.45140411  0.38712908  0.63230097     0.79700
C181        C  0.37826873  0.38778925  0.70614584     0.78600
C182        C  0.37043780  0.32545885  0.63281077     0.79000
C183        C  0.37671200  0.39421612  0.56538505     0.80200
C184        C  0.30793931  0.41186012  0.63648561     0.79200
Zn185      Zn  0.90123206  0.50167682  0.65086505     1.49700
Zn186      Zn  0.86143173  0.04773228  0.65487853     1.49400
Zn187      Zn  0.90230367  0.04321759  0.60779510     1.49100
Zn188      Zn  0.85143066  0.00622019  0.61025540     1.49500
O189        O  0.87815361  0.02477285  0.63045336    -1.82100
O190        O  0.89104000  0.00300620  0.68809838    -0.72700
O191        O  0.87378172  0.08379904  0.64917812    -0.72500
O192        O  0.94074470  0.03282037  0.61388646    -0.72000
O193        O  0.86440994  0.03625292  0.69217341    -0.72700
O194        O  0.93943573  0.50388638  0.64524476    -0.72300
O195        O  0.89653170  0.08132732  0.61297313    -0.72900
O196        O  0.85907649  0.00995862  0.57229519    -0.72300
O197        O  0.82338887  0.05051265  0.64661466    -0.73000
O198        O  0.89421164  0.03526016  0.57072063    -0.72400
O199        O  0.81486460  0.02208361  0.61617610    -0.72900
O200        O  0.85819547  0.46806856  0.61525087    -0.72800
O201        O  0.89249498  0.46652876  0.64141539    -0.72600
C202        C  0.87684400  0.01736145  0.70198699     0.79200
C203        C  0.88501429  0.09455665  0.63019518     0.79700
C204        C  0.95089298  0.01664347  0.62939047     0.78600
C205        C  0.87662946  0.02190067  0.55947011     0.79000
C206        C  0.80745348  0.04029164  0.63092769     0.80200
C207        C  0.87537753  0.45530167  0.62787171     0.79200
Zn208      Zn  0.86236042  0.29879184  0.59628001     1.49700
Zn209      Zn  0.90125028  0.29253379  0.64326778     1.49400
Zn210      Zn  0.85088608  0.25472445  0.63571364     1.49100
Zn211      Zn  0.90011130  0.25195911  0.59752931     1.49500
O212        O  0.87890213  0.27434299  0.61866723    -1.82100
O213        O  0.87672650  0.33361617  0.60119025    -0.72700
O214        O  0.89117982  0.28154238  0.67932948    -0.72500
O215        O  0.81429342  0.27056662  0.63048592    -0.72000
O216        O  0.89592512  0.33139259  0.63913996    -0.72700
O217        O  0.82479416  0.30358979  0.60555754    -0.72300
O218        O  0.85714431  0.25547385  0.67330220    -0.72900
O219        O  0.89036335  0.21574539  0.60431510    -0.72300
O220        O  0.94007404  0.28261862  0.63844915    -0.73000
O221        O  0.85348700  0.21677359  0.62715516    -0.72400
O222        O  0.93790482  0.25374142  0.60720981    -0.72900
O223        O  0.89581060  0.25876398  0.55984229    -0.72800
O224        O  0.86521689  0.28923892  0.55935587    -0.72600
C225        C  0.88648947  0.34455970  0.62064491     0.79200
C226        C  0.87352053  0.26638722  0.68810979     0.79700
C227        C  0.80815337  0.29142496  0.61905543     0.78600
C228        C  0.87188840  0.20429042  0.61610981     0.79000
C229        C  0.95099771  0.26609697  0.62383321     0.80200
C230        C  0.88018115  0.27351382  0.54772811     0.79200
Zn231      Zn  0.84981949  0.21233952  0.84207102     1.49700
Zn232      Zn  0.83740360  0.25084846  0.88833255     1.49400
Zn233      Zn  0.88999210  0.21594428  0.88943293     1.49100
Zn234      Zn  0.88579678  0.26018775  0.84944703     1.49500
O235        O  0.86552447  0.23485107  0.86771169    -1.82100
O236        O  0.81158986  0.20666719  0.84967133    -0.72700
O237        O  0.84549200  0.24634601  0.92611765    -0.72500
O238        O  0.88411094  0.17800703  0.88337377    -0.72000
O239        O  0.80219498  0.23198090  0.88252428    -0.72700
O240        O  0.86332713  0.17653819  0.84606449    -0.72300
O241        O  0.88229123  0.22314893  0.92655496    -0.72900
O242        O  0.92407390  0.25959129  0.85771144    -0.72300
O243        O  0.83634779  0.28990721  0.88122807    -0.73000
O244        O  0.92851335  0.22609796  0.88340049    -0.72400
O245        O  0.87257622  0.29435226  0.85762154    -0.72900
O246        O  0.88233725  0.25741737  0.81187581    -0.72800
O247        O  0.85488664  0.22504355  0.80550414    -0.72600
C248        C  0.79566778  0.21423424  0.86684424     0.79200
C249        C  0.86397073  0.23506450  0.93822321     0.79700
C250        C  0.87364241  0.16528317  0.86517798     0.78600
C251        C  0.93857619  0.24480398  0.87090561     0.79000
C252        C  0.85307468  0.30396679  0.86930464     0.80200
C253        C  0.86909941  0.24335243  0.79683317     0.79200
Zn254      Zn  0.83885961  0.00421845  0.85994104     1.49700
Zn255      Zn  0.84803324  0.46057082  0.90112448     1.49400
Zn256      Zn  0.89036599  0.46443813  0.85667291     1.49100
Zn257      Zn  0.88511247  0.00796009  0.90104098     1.49500
O258        O  0.86636277  0.48376686  0.87869201    -1.82100
O259        O  0.80302045  0.48608468  0.86161031    -0.72700
O260        O  0.85847171  0.42485970  0.89557637    -0.72500
O261        O  0.88587787  0.47710872  0.82005808    -0.72000
O262        O  0.81043581  0.45837443  0.89284429    -0.72700
O263        O  0.85065906  0.50223642  0.82208440    -0.72300
O264        O  0.88047844  0.42597536  0.85899359    -0.72900
O265        O  0.92346323  0.00324089  0.89641212    -0.72300
O266        O  0.85169406  0.46861478  0.93774095    -0.73000
O267        O  0.92918565  0.47199666  0.86630809    -0.72400
O268        O  0.87831252  0.50234411  0.93743126    -0.72900
O269        O  0.87821275  0.04355355  0.89050684    -0.72800
O270        O  0.84136995  0.04284208  0.86776288    -0.72600
C271        C  0.79516728  0.46784128  0.87622547     0.79200
C272        C  0.86805437  0.41347828  0.87633990     0.79700
C273        C  0.86939734  0.49223451  0.80937514     0.78600
C274        C  0.93926406  0.48861887  0.88149113     0.79000
C275        C  0.86442690  0.48595688  0.94945252     0.80200
C276        C  0.86037211  0.05520223  0.87814316     0.79200
Zn277      Zn  0.10318721  0.50034692  0.85397728     1.49700
Zn278      Zn  0.13821106  0.04509342  0.84815537     1.49400
Zn279      Zn  0.09835897  0.04235768  0.89545156     1.49100
Zn280      Zn  0.14889386  0.00407449  0.89286534     1.49500
O281        O  0.12171783  0.02262955  0.87307445    -1.82100
O282        O  0.10563180  0.00210238  0.81546517    -0.72700
O283        O  0.12566378  0.08105030  0.85172803    -0.72500
O284        O  0.05949648  0.03182276  0.89089686    -0.72000
O285        O  0.13558576  0.03270055  0.81169760    -0.72700
O286        O  0.06543564  0.50156787  0.86227755    -0.72300
O287        O  0.10455956  0.08053171  0.88887387    -0.72900
O288        O  0.14109773  0.00792833  0.93096279    -0.72300
O289        O  0.17592243  0.04901650  0.85622706    -0.73000
O290        O  0.10747241  0.03514054  0.93236305    -0.72400
O291        O  0.18551175  0.02106351  0.88677254    -0.72900
O292        O  0.14818916  0.46463651  0.88640258    -0.72800
O293        O  0.11330995  0.46534547  0.86107553    -0.72600
C294        C  0.12133143  0.01520998  0.80178702     0.79200
C295        C  0.11549277  0.09283632  0.87055671     0.79700
C296        C  0.04904872  0.01453654  0.87679691     0.78600
C297        C  0.12437477  0.02104664  0.94369564     0.79000
C298        C  0.19230372  0.03947315  0.87182253     0.80200
C299        C  0.13076501  0.45293021  0.87300583     0.79200
Zn300      Zn  0.15195479  0.25364403  0.85710645     1.49700
Zn301      Zn  0.13995664  0.29726129  0.89739113     1.49400
Zn302      Zn  0.10104765  0.29058909  0.85061263     1.49100
Zn303      Zn  0.10375843  0.25024269  0.89674614     1.49500
O304        O  0.12398731  0.27259723  0.87479806    -1.82100
O305        O  0.18822660  0.27103671  0.86236684    -0.72700
O306        O  0.12424457  0.33127239  0.89370612    -0.72500
O307        O  0.10929604  0.27879376  0.81393677    -0.72000
O308        O  0.17680518  0.30378588  0.88723819    -0.72700
O309        O  0.14504786  0.25475418  0.81928054    -0.72300
O310        O  0.10859145  0.32951795  0.85412502    -0.72900
O311        O  0.06537306  0.25348698  0.89012811    -0.72300
O312        O  0.13872808  0.28778298  0.93438943    -0.73000
O313        O  0.06224683  0.28131205  0.85813189    -0.72400
O314        O  0.11083495  0.25502153  0.93414983    -0.72900
O315        O  0.11268279  0.21450540  0.88896112    -0.72800
O316        O  0.14961535  0.21519149  0.86605525    -0.72600
C317        C  0.19372046  0.29219493  0.87367751     0.79200
C318        C  0.11737794  0.34231675  0.87320356     0.79700
C319        C  0.12765070  0.26468404  0.80480767     0.78600
C320        C  0.05148823  0.26582227  0.87409189     0.79000
C321        C  0.12558643  0.27064289  0.94614191     0.80200
C322        C  0.13116500  0.20289902  0.87747698     0.79200
Zn323      Zn  0.11505179  0.25600849  0.60529548     1.49700
Zn324      Zn  0.14979057  0.20753545  0.60284759     1.49400
Zn325      Zn  0.16189887  0.24876702  0.64623801     1.49100
Zn326      Zn  0.10918647  0.21398509  0.64947529     1.49500
O327        O  0.13394828  0.23173867  0.62641725    -1.82100
O328        O  0.11978501  0.25038663  0.56738030    -0.72700
O329        O  0.18872148  0.20669335  0.60560571    -0.72500
O330        O  0.16190330  0.28771714  0.63881745    -0.72000
O331        O  0.14043451  0.21285276  0.56604467    -0.72700
O332        O  0.12727784  0.29088584  0.61293897    -0.72300
O333        O  0.19751854  0.23042230  0.63978778    -0.72900
O334        O  0.11492955  0.22634232  0.68605001    -0.72300
O335        O  0.14105148  0.17230515  0.61324132    -0.73000
O336        O  0.15321715  0.24707531  0.68403954    -0.72400
O337        O  0.11542839  0.17497837  0.64765003    -0.72900
O338        O  0.07111821  0.22342839  0.64089025    -0.72800
O339        O  0.07666878  0.25581715  0.61356786    -0.72600
C340        C  0.12958864  0.23176257  0.55483788     0.79200
C341        C  0.20470482  0.21436473  0.62258733     0.79700
C342        C  0.14547865  0.30117011  0.62599721     0.78600
C343        C  0.13344637  0.23896297  0.69678291     0.79000
C344        C  0.12901131  0.16184682  0.63176468     0.80200
C345        C  0.06187287  0.24183644  0.62744067     0.79200
Zn346      Zn  0.16094432  0.00034342  0.64516664     1.49700
Zn347      Zn  0.15364598  0.45866909  0.60366471     1.49400
Zn348      Zn  0.11356506  0.46179500  0.64957627     1.49100
Zn349      Zn  0.11407475  0.00642032  0.60551911     1.49500
O350        O  0.13717749  0.48173333  0.62743091    -1.82100
O351        O  0.20069742  0.48320881  0.64176330    -0.72700
O352        O  0.14121111  0.42297444  0.60811837    -0.72500
O353        O  0.11957024  0.47286977  0.68603159    -0.72000
O354        O  0.19137938  0.45511827  0.61124061    -0.72700
O355        O  0.15500447  0.49788993  0.68391512    -0.72300
O356        O  0.12151606  0.42316020  0.64601468    -0.72900
O357        O  0.07587232  0.00237202  0.61045875    -0.72300
O358        O  0.14951877  0.46905496  0.56735136    -0.73000
O359        O  0.07476468  0.47033311  0.64170668    -0.72400
O360        O  0.12345902  0.50316826  0.56995408    -0.72900
O361        O  0.12153788  0.04141441  0.61750628    -0.72800
O362        O  0.15974191  0.03917451  0.63819265    -0.72600
C363        C  0.20752272  0.46469936  0.62703980     0.79200
C364        C  0.13184810  0.41107940  0.62727527     0.79700
C365        C  0.13651041  0.48745027  0.69670932     0.78600
C366        C  0.06488057  0.48751607  0.62707383     0.79000
C367        C  0.13668192  0.48716295  0.55687877     0.80200
C368        C  0.14030158  0.05209213  0.62944931     0.79200
Zn369      Zn  0.34982078  0.08198603  0.10315106     1.49700
Zn370      Zn  0.38681955  0.12991140  0.10592721     1.49400
Zn371      Zn  0.33765597  0.12426540  0.14445755     1.49100
Zn372      Zn  0.38949987  0.08753638  0.14935741     1.49500
O373        O  0.36601877  0.10615887  0.12617552    -1.82100
O374        O  0.35676123  0.08981777  0.06699019    -0.72700
O375        O  0.37556872  0.16562711  0.11290350    -0.72500
O376        O  0.30136841  0.10631683  0.13922713    -0.72000
O377        O  0.38333865  0.12358170  0.06836561    -0.72700
O378        O  0.31132034  0.07902721  0.10826856    -0.72300
O379        O  0.33875770  0.16284344  0.13592514    -0.72900
O380        O  0.38204143  0.09992777  0.18521500    -0.72300
O381        O  0.42506578  0.12817670  0.11477401    -0.73000
O382        O  0.34596000  0.12378619  0.18199566    -0.72400
O383        O  0.42865798  0.09598968  0.14239769    -0.72900
O384        O  0.38186500  0.04876411  0.14706805    -0.72800
O385        O  0.36103109  0.04654539  0.10997778    -0.72600
C386        C  0.37061653  0.10679096  0.05580570     0.79200
C387        C  0.35653541  0.17616645  0.12465195     0.79700
C388        C  0.29473684  0.08830015  0.12383962     0.78600
C389        C  0.36448393  0.11421476  0.19534296     0.79000
C390        C  0.43912218  0.11389959  0.12900112     0.80200
C391        C  0.37067715  0.03565355  0.12948324     0.79200
Zn392      Zn  0.38644143  0.38090955  0.15462546     1.49700
Zn393      Zn  0.33744187  0.37323517  0.11612215     1.49400
Zn394      Zn  0.38880879  0.33717153  0.11357115     1.49100
Zn395      Zn  0.34958276  0.33340690  0.16144415     1.49500
O396        O  0.36541052  0.35626324  0.13611322    -1.82100
O397        O  0.37365296  0.41554100  0.14736060    -0.72700
O398        O  0.34536993  0.37056405  0.07831819    -0.72500
O399        O  0.42739401  0.34731562  0.11855397    -0.72000
O400        O  0.33699409  0.41215655  0.12426135    -0.72700
O401        O  0.42434610  0.38053364  0.14478311    -0.72300
O402        O  0.38071958  0.34548869  0.07681387    -0.72900
O403        O  0.36150271  0.29707611  0.15600614    -0.72300
O404        O  0.30240152  0.35354416  0.12070935    -0.73000
O405        O  0.38194675  0.29903633  0.11855036    -0.72400
O406        O  0.31116685  0.32879339  0.15419461    -0.72900
O407        O  0.35554603  0.34524359  0.19826343    -0.72800
O408        O  0.38371337  0.37721864  0.19229502    -0.72600
C409        C  0.35423929  0.42571980  0.13602853     0.79200
C410        C  0.36310621  0.35882634  0.06567725     0.79700
C411        C  0.43804513  0.36604181  0.13051283     0.78600
C412        C  0.37099133  0.28604143  0.13635136     0.79000
C413        C  0.29563782  0.33592346  0.13650226     0.80200
C414        C  0.37021804  0.36309148  0.20715881     0.79200
Zn415      Zn  0.35672552  0.16896457  0.35023642     1.49700
Zn416      Zn  0.34720714  0.12943411  0.39670264     1.49400
Zn417      Zn  0.39308286  0.12176774  0.35448136     1.49100
Zn418      Zn  0.39951811  0.16528433  0.39572843     1.49500
O419        O  0.37399715  0.14638253  0.37480765    -1.82100
O420        O  0.31874398  0.17148381  0.35838503    -0.72700
O421        O  0.34812323  0.09011782  0.39086677    -0.72500
O422        O  0.38562615  0.12392812  0.31731111    -0.72000
O423        O  0.31053506  0.14621272  0.39168423    -0.72700
O424        O  0.35992416  0.15789469  0.31312479    -0.72300
O425        O  0.38246902  0.08724342  0.36462469    -0.72900
O426        O  0.43780346  0.15390817  0.38827594    -0.72300
O427        O  0.35646479  0.13478891  0.43391851    -0.73000
O428        O  0.43189116  0.12343085  0.35924780    -0.72400
O429        O  0.39255524  0.15882777  0.43345177    -0.72900
O430        O  0.39348421  0.20353446  0.38979859    -0.72800
O431        O  0.36817995  0.20525044  0.35525884    -0.72600
C432        C  0.30307469  0.16297823  0.37531889     0.79200
C433        C  0.36473826  0.07675208  0.37813504     0.79700
C434        C  0.37214476  0.13890702  0.30336533     0.78600
C435        C  0.44704139  0.13658466  0.37341789     0.79000
C436        C  0.37477984  0.14666710  0.44574066     0.80200
C437        C  0.38048483  0.21641141  0.37326561     0.79200
Zn438      Zn  0.35742055  0.42050666  0.40768377     1.49700
Zn439      Zn  0.34694879  0.37707318  0.36712317     1.49400
Zn440      Zn  0.39634530  0.41607807  0.36078842     1.49100
Zn441      Zn  0.39533919  0.37402146  0.40523732     1.49500
O442        O  0.37434385  0.39674358  0.38473710    -1.82100
O443        O  0.32067262  0.42663796  0.39654129    -0.72700
O444        O  0.35522657  0.37677868  0.33003568    -0.72500
O445        O  0.38769488  0.45469856  0.36516499    -0.72000
O446        O  0.31116890  0.39485849  0.36972497    -0.72700
O447        O  0.37196443  0.45570019  0.40465883    -0.72300
O448        O  0.38784966  0.40458710  0.32437110    -0.72900
O449        O  0.43300473  0.37655610  0.39592444    -0.72300
O450        O  0.34790492  0.33893678  0.37645420    -0.73000
O451        O  0.43564010  0.40700627  0.36632082    -0.72400
O452        O  0.38555447  0.33790814  0.39791781    -0.72900
O453        O  0.39132223  0.38037900  0.44281559    -0.72800
O454        O  0.35921819  0.40938794  0.44441647    -0.72600
C455        C  0.30497705  0.41567646  0.38116762     0.79200
C456        C  0.37144214  0.38824383  0.31544554     0.79700
C457        C  0.37863026  0.46727111  0.38428547     0.78600
C458        C  0.44652297  0.38976392  0.38026676     0.79000
C459        C  0.36667600  0.32637676  0.38686761     0.80200
C460        C  0.37525275  0.39418299  0.45542171     0.79200
Zn461      Zn  0.60233898  0.11990304  0.10127150     1.49700
Zn462      Zn  0.60193698  0.16051749  0.14746559     1.49400
Zn463      Zn  0.65157431  0.12185699  0.14068111     1.49100
Zn464      Zn  0.64062347  0.16551790  0.10005303     1.49500
O465        O  0.62390067  0.14154897  0.12299955    -1.82100
O466        O  0.56437441  0.12114788  0.11163685    -0.72700
O467        O  0.61205517  0.15059615  0.18413065    -0.72500
O468        O  0.64961568  0.08386177  0.13008883    -0.72000
O469        O  0.56290113  0.15051375  0.14255127    -0.72700
O470        O  0.61318023  0.08384583  0.10640886    -0.72300
O471        O  0.64340829  0.12119771  0.17844488    -0.72900
O472        O  0.67740496  0.17200306  0.11087448    -0.72300
O473        O  0.60691331  0.19936360  0.14173643    -0.73000
O474        O  0.68812974  0.13990603  0.13690556    -0.72400
O475        O  0.62424965  0.19985068  0.10265513    -0.72900
O476        O  0.63961905  0.15509706  0.06311635    -0.72800
O477        O  0.60609384  0.12776509  0.06335939    -0.72600
C478        C  0.55157753  0.13402575  0.12811912     0.79200
C479        C  0.62799099  0.13378796  0.19299359     0.79700
C480        C  0.63168346  0.07192878  0.11763564     0.78600
C481        C  0.69392430  0.16092942  0.12534169     0.79000
C482        C  0.61466117  0.21147081  0.12182076     0.80200
C483        C  0.62311122  0.14110051  0.05124715     0.79200
Zn484      Zn  0.64929032  0.37099278  0.13154861     1.49700
Zn485      Zn  0.60080473  0.41024241  0.13955483     1.49400
Zn486      Zn  0.63911066  0.41656027  0.09304505     1.49100
Zn487      Zn  0.60048824  0.37041995  0.09302449     1.49500
O488        O  0.62216624  0.39168147  0.11468591    -1.82100
O489        O  0.64292059  0.37101532  0.16919006    -0.72700
O490        O  0.60803722  0.44882249  0.13667956    -0.72500
O491        O  0.67588400  0.42204217  0.10494292    -0.72000
O492        O  0.60996703  0.39826873  0.17518808    -0.72700
O493        O  0.68605223  0.38716671  0.12749817    -0.72300
O494        O  0.62318669  0.45117339  0.09687158    -0.72900
O495        O  0.60705380  0.37682862  0.05551903    -0.72300
O496        O  0.56171786  0.40220766  0.13417404    -0.73000
O497        O  0.63829234  0.40674162  0.05594458    -0.72400
O498        O  0.56248840  0.37530225  0.10125159    -0.72900
O499        O  0.60769256  0.33351984  0.10055682    -0.72800
O500        O  0.64516734  0.33306383  0.12258994    -0.72600
C501        C  0.62687944  0.38243249  0.18394554     0.79200
C502        C  0.61550333  0.46190723  0.11733400     0.79700
C503        C  0.69213569  0.40916805  0.11821919     0.78600
C504        C  0.62338219  0.39129237  0.04381833     0.79000
C505        C  0.54987106  0.38742388  0.11842718     0.80200
C506        C  0.62585609  0.32134198  0.11208905     0.79200
Zn507      Zn  0.60793017  0.08578145  0.34871994     1.49700
Zn508      Zn  0.65876071  0.12418036  0.35218972     1.49400
Zn509      Zn  0.61114544  0.12832255  0.39277238     1.49100
Zn510      Zn  0.64904891  0.08257812  0.39501336     1.49500
O511        O  0.63155630  0.10531203  0.37148114    -1.82100
O512        O  0.61506109  0.09649331  0.31166809    -0.72700
O513        O  0.65640203  0.16270276  0.36027147    -0.72500
O514        O  0.57288192  0.12459267  0.38645226    -0.72000
O515        O  0.64967571  0.12275190  0.31464348    -0.72700
O516        O  0.56879518  0.09463870  0.35653490    -0.72300
O517        O  0.62006108  0.16392455  0.38398727    -0.72900
O518        O  0.64152874  0.08920440  0.43136337    -0.72300
O519        O  0.69591241  0.10803976  0.35784975    -0.73000
O520        O  0.61651604  0.12385769  0.43054098    -0.72400
O521        O  0.68744686  0.08266061  0.39086809    -0.72900
O522        O  0.64067045  0.04672485  0.38759263    -0.72800
O523        O  0.61578840  0.04698437  0.35280997    -0.72600
C524        C  0.63192716  0.11162270  0.30143592     0.79200
C525        C  0.63826712  0.17526755  0.37175036     0.79700
C526        C  0.55855495  0.11102902  0.37186482     0.78600
C527        C  0.62873863  0.10657291  0.44292000     0.79000
C528        C  0.70348844  0.09170949  0.37465766     0.80200
C529        C  0.62913750  0.03485765  0.36971366     0.79200
Zn530      Zn  0.60933996  0.37802979  0.34408707     1.49700
Zn531      Zn  0.65851973  0.37380494  0.38309546     1.49400
Zn532      Zn  0.60744180  0.33624476  0.38672342     1.49100
Zn533      Zn  0.64828855  0.33257938  0.33939288     1.49500
O534        O  0.63106337  0.35516128  0.36388505    -1.82100
O535        O  0.62017978  0.41337352  0.35028827    -0.72700
O536        O  0.65116498  0.37062852  0.42108862    -0.72500
O537        O  0.56847899  0.34638505  0.38235839    -0.72000
O538        O  0.65614768  0.41227377  0.37454833    -0.72700
O539        O  0.57142788  0.37706966  0.35326378    -0.72300
O540        O  0.61613769  0.34489994  0.42342362    -0.72900
O541        O  0.63538039  0.29688066  0.34389305    -0.72300
O542        O  0.69537733  0.35763758  0.37754730    -0.73000
O543        O  0.61381565  0.29807489  0.38084490    -0.72400
O544        O  0.68636249  0.32822080  0.34809389    -0.72900
O545        O  0.64433278  0.34413013  0.30237547    -0.72800
O546        O  0.61317518  0.37342203  0.30685868    -0.72600
C547        C  0.63862432  0.42469145  0.36203176     0.79200
C548        C  0.63374624  0.35869567  0.43409070     0.79700
C549        C  0.55776918  0.36401486  0.36889243     0.78600
C550        C  0.62486314  0.28547253  0.36282416     0.79000
C551        C  0.70232535  0.33853818  0.36371035     0.80200
C552        C  0.62861335  0.36060179  0.29272961     0.79200
Zn553      Zn  0.89499044  0.49665940  0.35768575     1.49700
Zn554      Zn  0.85943841  0.04343772  0.35172670     1.49400
Zn555      Zn  0.84707364  0.00530116  0.39824628     1.49100
Zn556      Zn  0.89895969  0.04214963  0.39870087     1.49500
O557        O  0.87494464  0.02164169  0.37765343    -1.82100
O558        O  0.88895743  0.99596423  0.32194548    -0.72700
O559        O  0.82104400  0.04685788  0.35721416    -0.72500
O560        O  0.84956671  0.46584007  0.39318387    -0.72000
O561        O  0.86507062  0.03090019  0.31594115    -0.72700
O562        O  0.88625270  0.46220316  0.37002677    -0.72300
O563        O  0.81152918  0.02363605  0.39158813    -0.72900
O564        O  0.89212098  0.03385702  0.43597810    -0.72300
O565        O  0.87103577  0.07974747  0.35537397    -0.73000
O566        O  0.85625126  0.00930906  0.43596654    -0.72400
O567        O  0.89120014  0.08064410  0.39303485    -0.72900
O568        O  0.93782447  0.03278582  0.39093977    -0.72800
O569        O  0.93362463  0.50002125  0.36173817    -0.72600
C570        C  0.87679044  0.01119231  0.30713737     0.79200
C571        C  0.80478491  0.03968379  0.37420326     0.79700
C572        C  0.86751237  0.45221754  0.38257565     0.78600
C573        C  0.87466926  0.02088936  0.44798180     0.79000
C574        C  0.88055537  0.09219444  0.37410425     0.80200
C575        C  0.94763111  0.01434117  0.37782325     0.79200
Zn576      Zn  0.89604180  0.24845137  0.34785034     1.49700
Zn577      Zn  0.85991655  0.29702587  0.34384951     1.49400
Zn578      Zn  0.84872694  0.25549053  0.38845127     1.49100
Zn579      Zn  0.90056373  0.29197194  0.38927576     1.49500
O580        O  0.87604682  0.27296816  0.36766559    -1.82100
O581        O  0.89007254  0.25219394  0.31022501    -0.72700
O582        O  0.82210511  0.30127224  0.35254103    -0.72500
O583        O  0.85063710  0.21599626  0.38314841    -0.72000
O584        O  0.86271089  0.28531938  0.30685670    -0.72700
O585        O  0.88499205  0.21316113  0.35687302    -0.72300
O586        O  0.81200460  0.27195637  0.38194699    -0.72900
O587        O  0.89446658  0.28304254  0.42586397    -0.72300
O588        O  0.87243154  0.33321898  0.34928393    -0.73000
O589        O  0.85690095  0.26096692  0.42597298    -0.72400
O590        O  0.89333593  0.33010452  0.38636793    -0.72900
O591        O  0.93873940  0.28268415  0.38245030    -0.72800
O592        O  0.93454004  0.25001552  0.35556596    -0.72600
C593        C  0.87573413  0.26697308  0.29676140     0.79200
C594        C  0.80565358  0.29108435  0.36777556     0.79700
C595        C  0.86730192  0.20261773  0.37048793     0.78600
C596        C  0.87608066  0.27147982  0.43773561     0.79000
C597        C  0.88196240  0.34357300  0.36927914     0.80200
C598        C  0.94877087  0.26428506  0.36963512     0.79200
Zn599      Zn  0.84830222  0.20586823  0.09787138     1.49700
Zn600      Zn  0.83864470  0.24995150  0.13909175     1.49400
Zn601      Zn  0.88914479  0.21188903  0.14379894     1.49100
Zn602      Zn  0.88653222  0.25257743  0.09873173     1.49500
O603        O  0.86568255  0.23019934  0.12024328    -1.82100
O604        O  0.81077890  0.20208569  0.10792605    -0.72700
O605        O  0.84782960  0.25004535  0.17645572    -0.72500
O606        O  0.88090632  0.17326693  0.14190246    -0.72000
O607        O  0.80170827  0.23273908  0.13611697    -0.72700
O608        O  0.86057801  0.17009628  0.10441575    -0.72300
O609        O  0.88280295  0.22470828  0.17980519    -0.72900
O610        O  0.92482893  0.24953437  0.10620436    -0.72300
O611        O  0.84144781  0.28848786  0.13047460    -0.73000
O612        O  0.92814834  0.22023141  0.13671586    -0.72400
O613        O  0.87812546  0.28865471  0.10725340    -0.72900
O614        O  0.88057082  0.24687928  0.06104363    -0.72800
O615        O  0.85131702  0.21508520  0.06025547    -0.72600
C616        C  0.79499889  0.21265748  0.12351895     0.79200
C617        C  0.86608509  0.24000167  0.18977713     0.79700
C618        C  0.86976527  0.15977303  0.12456312     0.78600
C619        C  0.93880585  0.23668989  0.12174662     0.79000
C620        C  0.86032130  0.30057504  0.11948968     0.80200
C621        C  0.86560554  0.23163428  0.04872132     0.79200
Zn622      Zn  0.84844295  0.45535077  0.10662112     1.49700
Zn623      Zn  0.83823418  0.99753221  0.14990715     1.49400
Zn624      Zn  0.88740509  0.46196581  0.15235400     1.49100
Zn625      Zn  0.88558330  0.00462341  0.11112169     1.49500
O626        O  0.86322027  0.48019974  0.12966050    -1.82100
O627        O  0.81134222  0.44849085  0.11513718    -0.72700
O628        O  0.84316077  0.49671690  0.18562766    -0.72500
O629        O  0.88230205  0.42279418  0.14874718    -0.72000
O630        O  0.79864714  0.47861104  0.14247679    -0.72700
O631        O  0.86510179  0.42132419  0.10975077    -0.72300
O632        O  0.87937066  0.47283762  0.18827953    -0.72900
O633        O  0.92403615  0.00014409  0.11535936    -0.72300
O634        O  0.83790024  0.03648200  0.14149042    -0.73000
O635        O  0.92593078  0.47282410  0.14569182    -0.72400
O636        O  0.87724028  0.03973972  0.12281366    -0.72900
O637        O  0.87777244  0.49884180  0.07189888    -0.72800
O638        O  0.85038902  0.46575499  0.07031761    -0.72600
C639        C  0.79378807  0.45842586  0.12922471     0.79200
C640        C  0.86176072  0.48682413  0.19868471     0.79700
C641        C  0.87438518  0.41016146  0.12928794     0.78600
C642        C  0.93572510  0.49019244  0.13116810     0.79000
C643        C  0.85718992  0.04997855  0.13308492     0.80200
C644        C  0.86374544  0.48314649  0.05925528     0.79200
Zn645      Zn  0.10111499  0.49306859  0.14725246     1.49700
Zn646      Zn  0.13876699  0.03949425  0.15096308     1.49400
Zn647      Zn  0.15086939  0.00047444  0.10492527     1.49100
Zn648      Zn  0.09822194  0.03584089  0.10456468     1.49500
O649        O  0.12313753  0.01673072  0.12589010    -1.82100
O650        O  0.11124617  0.99178066  0.18272749    -0.72700
O651        O  0.17705998  0.04366790  0.14439262    -0.72500
O652        O  0.14609519  0.46169531  0.11225383    -0.72000
O653        O  0.13403350  0.02773436  0.18736789    -0.72700
O654        O  0.10823701  0.45840339  0.13366836    -0.72300
O655        O  0.18695361  0.01778214  0.11214112    -0.72900
O656        O  0.10584852  0.02914640  0.06732408    -0.72300
O657        O  0.12615290  0.07529800  0.14634726    -0.73000
O658        O  0.14290757  0.00661436  0.06726508    -0.72400
O659        O  0.10370054  0.07434837  0.10997105    -0.72900
O660        O  0.06005773  0.02461955  0.11170210    -0.72800
O661        O  0.06233985  0.49853130  0.14443736    -0.72600
C662        C  0.12310845  0.00785898  0.19690576     0.79200
C663        C  0.19354450  0.03519382  0.12822878     0.79700
C664        C  0.12712368  0.44821965  0.12141500     0.78600
C665        C  0.12433789  0.01788379  0.05524555     0.79000
C666        C  0.11508014  0.08682074  0.12782636     0.80200
C667        C  0.05055625  0.00731272  0.12646184     0.79200
Zn668      Zn  0.15178216  0.24817701  0.10503500     1.49700
Zn669      Zn  0.14301765  0.29024181  0.14895461     1.49400
Zn670      Zn  0.10038391  0.28634308  0.10417882     1.49100
Zn671      Zn  0.10450830  0.24348950  0.14615597     1.49500
O672        O  0.12514872  0.26701209  0.12557749    -1.82100
O673        O  0.18953676  0.26328480  0.11088618    -0.72700
O674        O  0.13342397  0.32675664  0.14171458    -0.72500
O675        O  0.10892140  0.27956301  0.06735328    -0.72000
O676        O  0.18120207  0.29065572  0.14241738    -0.72700
O677        O  0.14371793  0.25338745  0.06776971    -0.72300
O678        O  0.10561588  0.32476625  0.10898585    -0.72900
O679        O  0.06580843  0.24620011  0.14061740    -0.72300
O680        O  0.13851305  0.28065982  0.18606174    -0.73000
O681        O  0.06184640  0.27593167  0.11066664    -0.72400
O682        O  0.11126248  0.24735839  0.18323823    -0.72900
O683        O  0.11374384  0.20793978  0.13752850    -0.72800
O684        O  0.14810751  0.20897062  0.11104832    -0.72600
C685        C  0.19712224  0.28047348  0.12678994     0.79200
C686        C  0.11985031  0.33767168  0.12442045     0.79700
C687        C  0.12644988  0.26644245  0.05584073     0.78600
C688        C  0.05147208  0.25939226  0.12571860     0.79000
C689        C  0.12530276  0.26259500  0.19638501     0.80200
C690        C  0.13089899  0.19657221  0.12406144     0.79200
Zn691      Zn  0.14944114  0.21192130  0.34903998     1.49700
Zn692      Zn  0.15894744  0.25027751  0.39599718     1.49400
Zn693      Zn  0.11181876  0.25794550  0.35579126     1.49100
Zn694      Zn  0.10801374  0.21244113  0.39483440     1.49500
O695        O  0.13225332  0.23320739  0.37446043    -1.82100
O696        O  0.18721465  0.20829815  0.35725033    -0.72700
O697        O  0.15871614  0.28958107  0.38922179    -0.72500
O698        O  0.11440416  0.25424789  0.31814480    -0.72000
O699        O  0.19521245  0.23240116  0.39137949    -0.72700
O700        O  0.14573308  0.22500854  0.31293237    -0.72300
O701        O  0.12411303  0.29252676  0.36335727    -0.72900
O702        O  0.06942206  0.22185651  0.38816931    -0.72300
O703        O  0.14895284  0.24562302  0.43311632    -0.73000
O704        O  0.07419357  0.25732286  0.36492247    -0.72400
O705        O  0.11502550  0.21848580  0.43225881    -0.72900
O706        O  0.11475662  0.17485840  0.38770022    -0.72800
O707        O  0.13742278  0.17550547  0.35146097    -0.72600
C708        C  0.20263725  0.21587598  0.37476270     0.79200
C709        C  0.14233970  0.30295488  0.37618365     0.79700
C710        C  0.12974894  0.24147705  0.30386857     0.78600
C711        C  0.05976227  0.24151456  0.37694984     0.79000
C712        C  0.13150986  0.23220834  0.44457091     0.80200
C713        C  0.12641588  0.16315928  0.36952931     0.79200
Zn714      Zn  0.15168335  0.46063501  0.39989283     1.49700
Zn715      Zn  0.11332382  0.00677729  0.39612351     1.49400
Zn716      Zn  0.15969151  0.00149882  0.35499011     1.49100
Zn717      Zn  0.10998765  0.46367595  0.35501466     1.49500
O718        O  0.13401661  0.48338334  0.37670879    -1.82100
O719        O  0.14972108  0.47125496  0.43617008    -0.72700
O720        O  0.12303901  0.04195827  0.38741755    -0.72500
O721        O  0.19802717  0.48536324  0.36040768    -0.72000
O722        O  0.11903394  0.50147194  0.43497386    -0.72700
O723        O  0.18867118  0.45650194  0.39026823    -0.72300
O724        O  0.15830640  0.04036783  0.36229579    -0.72900
O725        O  0.11727880  0.47317330  0.31813417    -0.72300
O726        O  0.07491929  0.00475876  0.39064921    -0.73000
O727        O  0.15142832  0.49990662  0.31995408    -0.72400
O728        O  0.07114342  0.47367199  0.36170493    -0.72900
O729        O  0.11694728  0.42507351  0.36039119    -0.72800
O730        O  0.13898093  0.42509857  0.39696330    -0.72600
C731        C  0.13484281  0.48726226  0.44738627     0.79200
C732        C  0.14091822  0.05310023  0.37463879     0.79700
C733        C  0.20461077  0.46625214  0.37436536     0.78600
C734        C  0.13379885  0.48812472  0.30721885     0.79000
C735        C  0.06115233  0.49147422  0.37551451     0.80200
C736        C  0.12836742  0.41305530  0.37862522     0.79200
C737        C  0.13471998  0.34472837  0.35416311     0.25700
C738        C  0.14261527  0.33133395  0.37628386    -0.22500
C739        C  0.14555077  0.34489256  0.39919963     0.20600
C740        C  0.14000045  0.37124628  0.40017047     0.25600
C741        C  0.13152817  0.38465358  0.37810535    -0.22400
C742        C  0.12921395  0.37103850  0.35504489     0.20500
F743        F  0.12203699  0.38316667  0.33315742    -0.12400
F744        F  0.13197926  0.33215929  0.33159256    -0.14700
F745        F  0.14244189  0.38346121  0.42295386    -0.14700
F746        F  0.15226731  0.33237603  0.42101189    -0.12400
C747        C  0.12404705  0.12116918  0.39305560     0.25700
C748        C  0.12922491  0.13474376  0.37031080    -0.22500
C749        C  0.13985800  0.12120622  0.34930316     0.20600
C750        C  0.14519103  0.09484228  0.35108280     0.25600
C751        C  0.13985272  0.08144466  0.37377147    -0.22400
C752        C  0.12936040  0.09491791  0.39474988     0.20500
F753        F  0.12411947  0.08258463  0.41708116    -0.12400
F754        F  0.11424918  0.13325075  0.41398512    -0.14700
F755        F  0.15437960  0.08222304  0.33021919    -0.14700
F756        F  0.14482805  0.13332795  0.32682652    -0.12400
C757        C  0.10340731  0.25238847  0.23762693     0.25700
C758        C  0.12650526  0.25849936  0.22410064    -0.22500
C759        C  0.15084685  0.25860320  0.23689059     0.20600
C760        C  0.15207023  0.25222203  0.26281389     0.25600
C761        C  0.12890443  0.24635605  0.27631243    -0.22400
C762        C  0.10455697  0.24675272  0.26363441     0.20500
F763        F  0.08193140  0.24119054  0.27637877    -0.12400
F764        F  0.07967230  0.25214020  0.22566904    -0.14700
F765        F  0.17573336  0.25240165  0.27489304    -0.14700
F766        F  0.17348112  0.26401835  0.22410625    -0.12400
C767        C  0.14643111  0.37818334  0.12560508     0.25700
C768        C  0.12196869  0.36589767  0.12162058    -0.22500
C769        C  0.10004773  0.38078589  0.11474813     0.20600
C770        C  0.10214135  0.40760965  0.11356165     0.25600
C771        C  0.12636570  0.41996544  0.11855213    -0.22400
C772        C  0.14863977  0.40498451  0.12388841     0.20500
F773        F  0.17217837  0.41634519  0.12887951    -0.12400
F774        F  0.16828614  0.36419379  0.13113521    -0.14700
F775        F  0.08031342  0.42161843  0.10796562    -0.14700
F776        F  0.07634826  0.36949362  0.11027047    -0.12400
C777        C  0.12870259  0.15547927  0.14772794     0.25700
C778        C  0.12975151  0.16828740  0.12414802    -0.22500
C779        C  0.12452640  0.15450203  0.10167158     0.20600
C780        C  0.11843268  0.12815753  0.10282704     0.25600
C781        C  0.11766484  0.11522186  0.12652752    -0.22400
C782        C  0.12287944  0.12927955  0.14894536     0.20500
F783        F  0.12210107  0.11774526  0.17221979    -0.12400
F784        F  0.13300814  0.16856932  0.16976936    -0.14700
F785        F  0.11383820  0.11526447  0.08074105    -0.14700
F786        F  0.12420690  0.16675771  0.07876707    -0.12400
C787        C  0.10799427  0.98472295  0.23661262     0.25700
C788        C  0.12447988  0.00313575  0.22484834    -0.22500
C789        C  0.14222989  0.51881603  0.24178376     0.20600
C790        C  0.14500427  0.51374682  0.26785577     0.25600
C791        C  0.13204143  0.49260220  0.27923385    -0.22400
C792        C  0.10989688  0.97977092  0.26280980     0.20500
F793        F  0.09354255  0.96189662  0.27322022    -0.12400
F794        F  0.08971214  0.97158539  0.22288450    -0.14700
F795        F  0.16001236  0.53004459  0.28198021    -0.14700
F796        F  0.15520893  0.53939867  0.23183630    -0.12400
C797        C  0.97890736  0.00190140  0.10629608     0.25700
C798        C  0.96448530  0.49587199  0.13124070    -0.22500
C799        C  0.97996799  0.49151437  0.15307454     0.20600
C800        C  0.00684910  0.49788529  0.15311805     0.25600
C801        C  0.02183005  0.00176402  0.12700009    -0.22400
C802        C  0.00573787  0.00809334  0.10610547     0.20500
F803        F  0.01603747  0.01972637  0.08511590    -0.12400
F804        F  0.96420817  0.00815229  0.08554809    -0.14700
F805        F  0.02099559  0.49360596  0.17470318    -0.14700
F806        F  0.96900652  0.48163891  0.17463267    -0.12400
C807        C  0.87925144  0.34259746  0.10453810     0.25700
C808        C  0.86323930  0.32892026  0.12198270    -0.22500
C809        C  0.85286115  0.34214630  0.14320632     0.20600
C810        C  0.85824222  0.36839751  0.14673633     0.25600
C811        C  0.87391000  0.38187494  0.12908030    -0.22400
C812        C  0.88431526  0.36876998  0.10799409     0.20500
F813        F  0.89904766  0.38154846  0.09039046    -0.12400
F814        F  0.88977359  0.33078472  0.08378501    -0.14700
F815        F  0.84700708  0.38098079  0.16665995    -0.14700
F816        F  0.83781687  0.32966838  0.16074207    -0.12400
C817        C  0.84409819  0.11916403  0.11648674     0.25700
C818        C  0.86571942  0.13167181  0.12821953    -0.22500
C819        C  0.88251106  0.11717970  0.14396494     0.20600
C820        C  0.87855667  0.09065533  0.14684884     0.25600
C821        C  0.85731030  0.07825065  0.13473571    -0.22400
C822        C  0.83975131  0.09279013  0.12006496     0.20500
F823        F  0.81936326  0.08116545  0.10786622    -0.12400
F824        F  0.82725580  0.13232889  0.10118638    -0.14700
F825        F  0.89603218  0.07680441  0.16085100    -0.14700
F826        F  0.90349181  0.12838675  0.15557580    -0.12400
C827        C  0.97926704  0.26016769  0.10585005     0.25700
C828        C  0.96774387  0.24213129  0.12278694    -0.22500
C829        C  0.98393288  0.23081701  0.14150397     0.20600
C830        C  0.01083794  0.23687410  0.14285849     0.25600
C831        C  0.02243279  0.25447528  0.12550859    -0.22400
C832        C  0.00610093  0.26625252  0.10724650     0.20500
F833        F  0.01602254  0.28362970  0.09039886    -0.12400
F834        F  0.96464204  0.27220413  0.08773483    -0.14700
F835        F  0.02543076  0.22540292  0.16136503    -0.14700
F836        F  0.97379282  0.21404301  0.15883345    -0.12400
C837        C  0.99528698  0.27744013  0.37982816     0.25700
C838        C  0.97727823  0.25845361  0.37189978    -0.22500
C839        C  0.98664355  0.23331241  0.36707612     0.20600
C840        C  0.01336312  0.22742984  0.36992796     0.25600
C841        C  0.03125914  0.24656287  0.37726728    -0.22400
C842        C  0.02204720  0.27158270  0.38224332     0.20500
F843        F  0.03907324  0.29042160  0.38943107    -0.12400
F844        F  0.98717460  0.30184980  0.38465307    -0.14700
F845        F  0.02193871  0.20332836  0.36438642    -0.14700
F846        F  0.96994850  0.21424518  0.35979623    -0.12400
C847        C  0.89271771  0.24440256  0.22999257     0.25700
C848        C  0.86845585  0.24707271  0.21719452    -0.22500
C849        C  0.84693282  0.25771146  0.23058602     0.20600
C850        C  0.84952566  0.26502416  0.25620081     0.25600
C851        C  0.87362502  0.26179487  0.26903403    -0.22400
C852        C  0.89521230  0.25157206  0.25560188     0.20500
F853        F  0.91896633  0.24882356  0.26719967    -0.12400
F854        F  0.91433161  0.23537866  0.21761911    -0.14700
F855        F  0.82809381  0.27421984  0.26874783    -0.14700
F856        F  0.82311218  0.26051447  0.21913453    -0.12400
C857        C  0.85130474  0.41020316  0.36681238     0.25700
C858        C  0.86741356  0.42399829  0.38363767    -0.22500
C859        C  0.88837404  0.41134308  0.39584556     0.20600
C860        C  0.89332350  0.38527541  0.39116537     0.25600
C861        C  0.87772916  0.37150660  0.37362874    -0.22400
C862        C  0.85641740  0.38425246  0.36174727     0.20500
F863        F  0.84048845  0.37170469  0.34506540    -0.12400
F864        F  0.83166135  0.42232145  0.35398303    -0.14700
F865        F  0.91401087  0.37385013  0.40304592    -0.14700
F866        F  0.90485765  0.42465729  0.41141563    -0.12400
C867        C  0.87142823  0.13438768  0.39613145     0.25700
C868        C  0.87766782  0.12059884  0.37376812    -0.22500
C869        C  0.87810258  0.13379741  0.35030215     0.20600
C870        C  0.87327252  0.16021598  0.34926094     0.25600
C871        C  0.86750320  0.17414741  0.37158467    -0.22400
C872        C  0.86623941  0.16094871  0.39501546     0.20500
F873        F  0.86108461  0.17392664  0.41692895    -0.12400
F874        F  0.86971557  0.12207055  0.41894678    -0.14700
F875        F  0.87445269  0.17231742  0.32628209    -0.14700
F876        F  0.88364912  0.12116115  0.32826078    -0.12400
C877        C  0.01414922  0.47966259  0.36468182     0.25700
C878        C  0.03236324  0.49730888  0.37477965    -0.22500
C879        C  0.02059042  0.01486734  0.39475029     0.20600
C880        C  0.99376215  0.02115636  0.39452105     0.25600
C881        C  0.97657962  0.00950280  0.37696949    -0.22400
C882        C  0.98715107  0.48530413  0.36449792     0.20500
F883        F  0.97041309  0.46723083  0.35511528    -0.12400
F884        F  0.02229839  0.45659474  0.35545278    -0.14700
F885        F  0.98462745  0.03834724  0.41189552    -0.14700
F886        F  0.03617904  0.02657191  0.41232063    -0.12400
C887        C  0.88417212  0.48456286  0.26774569     0.25700
C888        C  0.87556083  0.00547493  0.27938432    -0.22500
C889        C  0.85905103  0.01992622  0.26324702     0.20600
C890        C  0.85655344  0.01365952  0.23747764     0.25600
C891        C  0.86373077  0.49249961  0.22639901    -0.22400
C892        C  0.88084907  0.47819722  0.24206861     0.20500
F893        F  0.89453315  0.45786418  0.23264381    -0.12400
F894        F  0.90112324  0.47022821  0.28186526    -0.14700
F895        F  0.84069501  0.02855428  0.22274551    -0.14700
F896        F  0.84490369  0.04011400  0.27232702    -0.12400
C897        C  0.75171893  0.34177005  0.36838756     0.25700
C898        C  0.72884654  0.32669499  0.36642421    -0.22500
C899        C  0.73133853  0.29959875  0.36659887     0.20600
C900        C  0.75617196  0.28786017  0.36824193     0.25600
C901        C  0.77907184  0.30292847  0.36910079    -0.22400
C902        C  0.77658836  0.33001600  0.36942408     0.20500
F903        F  0.79836737  0.34516662  0.37075690    -0.12400
F904        F  0.75010118  0.36785274  0.36821503    -0.14700
F905        F  0.75788864  0.26179384  0.36784061    -0.14700
F906        F  0.70959980  0.28439135  0.36525806    -0.12400
C907        C  0.64288656  0.46629783  0.38478771     0.25700
C908        C  0.63784968  0.45297407  0.36213750    -0.22500
C909        C  0.62769465  0.46643845  0.34092818     0.20600
C910        C  0.62260243  0.49284251  0.34243426     0.25600
C911        C  0.63294852  0.00654416  0.36849056    -0.22400
C912        C  0.63756079  0.49253152  0.38645972     0.20500
F913        F  0.64851381  0.00524844  0.41209597    -0.12400
F914        F  0.65152971  0.45364305  0.40587603    -0.14700
F915        F  0.61951413  0.00523527  0.32452664    -0.14700
F916        F  0.62257423  0.45394862  0.31870335    -0.12400
C917        C  0.64622466  0.21680164  0.34860057     0.25700
C918        C  0.63685207  0.20363276  0.37018906    -0.22500
C919        C  0.62299687  0.21744953  0.38903952     0.20600
C920        C  0.61832326  0.24374240  0.38626512     0.25600
C921        C  0.62749101  0.25704414  0.36458569    -0.22400
C922        C  0.64160165  0.24317456  0.34577591     0.20500
F923        F  0.65107635  0.25498809  0.32451474    -0.12400
F924        F  0.65901081  0.20402920  0.32968717    -0.14700
F925        F  0.60497590  0.25609368  0.40508022    -0.14700
F926        F  0.61387367  0.20549318  0.41037179    -0.12400
C927        C  0.74044370  0.06897972  0.39729322     0.25700
C928        C  0.73064023  0.08082799  0.37490615    -0.22500
C929        C  0.74519952  0.07836490  0.35222511     0.20600
C930        C  0.76864887  0.06411700  0.35181263     0.25600
C931        C  0.77829830  0.05205084  0.37414874    -0.22400
C932        C  0.76385367  0.05472871  0.39688407     0.20500
F933        F  0.77267731  0.04414254  0.41899114    -0.12400
F934        F  0.72731683  0.07113924  0.41979719    -0.14700
F935        F  0.78167842  0.06178716  0.32927898    -0.14700
F936        F  0.73620593  0.08877142  0.33010872    -0.12400
C937        C  0.71970214  0.44739225  0.12971718     0.25700
C938        C  0.71810215  0.42100451  0.12350597    -0.22500
C939        C  0.74135603  0.40667904  0.12162347     0.20600
C940        C  0.76585216  0.41877726  0.12444003     0.25600
C941        C  0.76760333  0.44548909  0.12957424    -0.22400
C942        C  0.74420659  0.45946390  0.13297155     0.20500
F943        F  0.74499353  0.48501924  0.13827288    -0.12400
F944        F  0.69741942  0.46155904  0.13257193    -0.14700
F945        F  0.78794699  0.40428970  0.12180622    -0.14700
F946        F  0.74042873  0.38123223  0.11579894    -0.12400
C947        C  0.61431167  0.38718000  0.25514784     0.25700
C948        C  0.62834890  0.36582202  0.26481001    -0.22500
C949        C  0.64232994  0.35020585  0.24755962     0.20600
C950        C  0.64205328  0.35565103  0.22136846     0.25600
C951        C  0.62776950  0.37688270  0.21176803    -0.22400
C952        C  0.61402738  0.39258197  0.22907307     0.20500
F953        F  0.60047015  0.41355579  0.22092780    -0.12400
F954        F  0.60100692  0.40334519  0.27090298    -0.14700
F955        F  0.65553301  0.33979327  0.20545178    -0.14700
F956        F  0.65613976  0.32947036  0.25589152    -0.12400
C957        C  0.60617885  0.25234444  0.09849336     0.25700
C958        C  0.61450565  0.23977084  0.12082625    -0.22500
C959        C  0.62689146  0.25405359  0.14014021     0.20600
C960        C  0.63138746  0.28046017  0.13694360     0.25600
C961        C  0.62323888  0.29307429  0.11448806    -0.22400
C962        C  0.61016423  0.27879144  0.09547766     0.20500
F963        F  0.60170625  0.29030801  0.07368872    -0.12400
F964        F  0.59442309  0.23887219  0.07942379    -0.14700
F965        F  0.64323808  0.29377109  0.15605034    -0.14700
F966        F  0.63585141  0.24218976  0.16154195    -0.12400
C967        C  0.61451195  0.00447259  0.09662227     0.25700
C968        C  0.61696200  0.49013943  0.11855864    -0.22500
C969        C  0.63255204  0.00243434  0.13941647     0.20600
C970        C  0.63762700  0.02894045  0.13866916     0.25600
C971        C  0.63069568  0.04350628  0.11703633    -0.22400
C972        C  0.61915568  0.03093944  0.09598388     0.20500
F973        F  0.61237524  0.04430131  0.07467568    -0.12400
F974        F  0.59423528  0.49352482  0.07864806    -0.14700
F975        F  0.64848754  0.04045407  0.15940066    -0.14700
F976        F  0.64104212  0.48819829  0.15786002    -0.12400
C977        C  0.74345554  0.15975179  0.12855967     0.25700
C978        C  0.71989766  0.17378946  0.12861677    -0.22500
C979        C  0.72123319  0.20096593  0.12976488     0.20600
C980        C  0.74558583  0.21383367  0.12938334     0.25600
C981        C  0.76907610  0.19981643  0.12744026    -0.22400
C982        C  0.76775731  0.17262901  0.12787727     0.20500
F983        F  0.79016340  0.15843411  0.12751297    -0.12400
F984        F  0.74299468  0.13363414  0.12777227    -0.14700
F985        F  0.74609280  0.23995185  0.12962773    -0.14700
F986        F  0.69880324  0.21514692  0.13091417    -0.12400
C987        C  0.62684728  0.10268136  0.22959553     0.25700
C988        C  0.62849474  0.12825257  0.22075848    -0.22500
C989        C  0.63116851  0.14823353  0.23861013     0.20600
C990        C  0.63258764  0.14272065  0.26480032     0.25600
C991        C  0.63058036  0.11717030  0.27367791    -0.22400
C992        C  0.62739921  0.09723253  0.25583748     0.20500
F993        F  0.62557051  0.07240885  0.26378235    -0.12400
F994        F  0.62429535  0.08297197  0.21277484    -0.14700
F995        F  0.63542404  0.16244090  0.28157225    -0.14700
F996        F  0.63322437  0.17303038  0.23063155    -0.12400
C997        C  0.23187925  0.42654333  0.37454297     0.25700
C998        C  0.23056772  0.45359535  0.37210766    -0.22500
C999        C  0.25403449  0.46772811  0.37000192     0.20600
C1000       C  0.27836796  0.45517467  0.37231059     0.25600
C1001       C  0.27948860  0.42828767  0.37620112    -0.22400
C1002       C  0.25611383  0.41402368  0.37641617     0.20500
F1003       F  0.25666016  0.38813731  0.37994635    -0.12400
F1004       F  0.20951453  0.41218224  0.37567615    -0.14700
F1005       F  0.30088298  0.46929906  0.37100789    -0.14700
F1006       F  0.25342583  0.49369551  0.36712315    -0.12400
C1007       C  0.48545044  0.36069042  0.38836272     0.25700
C1008       C  0.47517538  0.38371623  0.37785751    -0.22500
C1009       C  0.49239331  0.40001905  0.36438714     0.20600
C1010       C  0.51900886  0.39352742  0.36140836     0.25600
C1011       C  0.52923625  0.37042125  0.37175667    -0.22400
C1012       C  0.51205566  0.35422097  0.38541297     0.20500
F1013       F  0.52081373  0.33183370  0.39574959    -0.12400
F1014       F  0.46969269  0.34389348  0.40114676    -0.14700
F1015       F  0.53481611  0.41031427  0.34868606    -0.14700
F1016       F  0.48363383  0.42248609  0.35423475    -0.12400
C1017       C  0.39063581  0.25791811  0.39592265     0.25700
C1018       C  0.37763280  0.24478661  0.37610339    -0.32100
C1019       C  0.35961574  0.25864492  0.36075521     0.20600
C1020       C  0.35496532  0.28483047  0.36504644     0.25600
C1021       C  0.36820992  0.29792373  0.38471082    -0.22400
C1022       C  0.38586404  0.28401098  0.40026471     0.20500
F1023       F  0.39876534  0.29565602  0.41980777    -0.12400
F1024       F  0.40805758  0.24559928  0.41131920    -0.14700
F1025       F  0.33807059  0.29746576  0.34933863    -0.14700
F1026       F  0.34620096  0.24696191  0.34155826    -0.12400
C1027       C  0.37514366  0.03450677  0.35825592     0.25700
C1028       C  0.36516963  0.04836597  0.37925311    -0.22500
C1029       C  0.36003668  0.03527711  0.40212783     0.20600
C1030       C  0.36586500  0.00904199  0.40433287     0.25600
C1031       C  0.37392431  0.49560470  0.38269582    -0.22400
C1032       C  0.38102359  0.00838635  0.36038014     0.20500
F1033       F  0.39067649  0.99602802  0.33955873    -0.12400
F1034       F  0.37951539  0.04639610  0.33552183    -0.14700
F1035       F  0.35777255  0.49723009  0.42612583    -0.14700
F1036       F  0.35057391  0.04808758  0.42276481    -0.12400
C1037       C  0.24065887  0.19603198  0.39892159     0.25700
C1038       C  0.22910551  0.20372307  0.37567680    -0.22500
C1039       C  0.24127049  0.19632792  0.35267424     0.20600
C1040       C  0.26448834  0.18198375  0.35279485     0.25600
C1041       C  0.27625596  0.17438327  0.37591246    -0.22400
C1042       C  0.26401000  0.18139014  0.39903893     0.20500
F1043       F  0.27509165  0.17486255  0.42171353    -0.12400
F1044       F  0.22894757  0.20198176  0.42146061    -0.14700
F1045       F  0.27557196  0.17552573  0.33007653    -0.14700
F1046       F  0.23069344  0.20313119  0.32983241    -0.12400
C1047       C  0.48739365  0.11993463  0.35079351     0.25700
C1048       C  0.47571400  0.13055722  0.37288351    -0.22500
C1049       C  0.49122673  0.13331145  0.39491627     0.20600
C1050       C  0.51776580  0.12589449  0.39482288     0.25600
C1051       C  0.52960173  0.11569742  0.37260055    -0.22400
C1052       C  0.51399842  0.11261938  0.35065930     0.20500
F1053       F  0.52470290  0.10348474  0.32871222    -0.12400
F1054       F  0.47320503  0.11716136  0.32900144    -0.14700
F1055       F  0.53183495  0.12845935  0.41671955    -0.14700
F1056       F  0.48053361  0.14245664  0.41687255    -0.12400
C1057       C  0.23744227  0.29189422  0.15103772     0.25700
C1058       C  0.22444796  0.29052095  0.12742357    -0.22500
C1059       C  0.23481737  0.30439767  0.10663098     0.20600
C1060       C  0.25743066  0.31985789  0.10963774     0.25600
C1061       C  0.27020482  0.32164171  0.13353296    -0.22400
C1062       C  0.26003403  0.30704651  0.15406338     0.20500
F1063       F  0.27157332  0.30781222  0.17742913    -0.12400
F1064       F  0.22764472  0.27905644  0.17156941    -0.14700
F1065       F  0.26688074  0.33289067  0.08908938    -0.14700
F1066       F  0.22223464  0.30411584  0.08377295    -0.12400
C1067       C  0.48337528  0.35404889  0.11505926     0.25700
C1068       C  0.46668562  0.37166825  0.12742586    -0.22500
C1069       C  0.47759203  0.39512388  0.13622998     0.20600
C1070       C  0.50445370  0.40054114  0.13299127     0.25600
C1071       C  0.52106876  0.38278035  0.12076926    -0.22400
C1072       C  0.51012402  0.35952422  0.11175268     0.20500
F1073       F  0.52547279  0.34146828  0.10038311    -0.12400
F1074       F  0.47401906  0.33116013  0.10645186    -0.14700
F1075       F  0.51406975  0.42337303  0.14151413    -0.14700
F1076       F  0.46229210  0.41313890  0.14773108    -0.12400
C1077       C  0.35225242  0.35810310  0.25177241     0.25700
C1078       C  0.37124573  0.36844228  0.23508335    -0.22500
C1079       C  0.39048601  0.38528889  0.24516865     0.20600
C1080       C  0.39045261  0.39188383  0.27105694     0.25600
C1081       C  0.37126274  0.38178610  0.28771196    -0.22400
C1082       C  0.35221577  0.36467519  0.27766699     0.20500
F1083       F  0.33318500  0.35431041  0.29276731    -0.12400
F1084       F  0.33318091  0.34202361  0.24303363    -0.14700
F1085       F  0.40942008  0.40813145  0.27971019    -0.14700
F1086       F  0.40958537  0.39549108  0.23004093    -0.12400
C1087       C  0.36309671  0.46786700  0.15702127     0.25700
C1088       C  0.35356705  0.45408925  0.13577403    -0.22500
C1089       C  0.34851791  0.46731681  0.11301167     0.20600
C1090       C  0.35378372  0.49366599  0.11116007     0.25600
C1091       C  0.36721600  0.00733360  0.13179816    -0.22400
C1092       C  0.36823989  0.49425789  0.15531266     0.20500
F1093       F  0.39775977  0.00499339  0.16670916    -0.12400
F1094       F  0.36789294  0.45558988  0.17945071    -0.14700
F1095       F  0.33499338  0.00697322  0.09780786    -0.14700
F1096       F  0.34010095  0.45444726  0.09198847    -0.12400
C1097       C  0.35097603  0.21659684  0.14985157     0.25700
C1098       C  0.35687407  0.20454798  0.12657258    -0.22500
C1099       C  0.36737419  0.21940016  0.10651373     0.20600
C1100       C  0.37244090  0.24564535  0.10980578     0.25600
C1101       C  0.36732613  0.25772824  0.13339934    -0.22400
C1102       C  0.35619630  0.24283218  0.15329673     0.20500
F1103       F  0.35062615  0.25344454  0.17634706    -0.12400
F1104       F  0.34151980  0.20267989  0.16982933    -0.14700
F1105       F  0.38212646  0.25916318  0.08966394    -0.14700
F1106       F  0.37291522  0.20841171  0.08361606    -0.12400
C1107       C  0.22934374  0.06205004  0.14856582     0.25700
C1108       C  0.22014816  0.04754566  0.12752778    -0.22500
C1109       C  0.23527281  0.04759158  0.10501855     0.20600
C1110       C  0.25882018  0.06168130  0.10355873     0.25600
C1111       C  0.26802637  0.07618018  0.12458634    -0.22400
C1112       C  0.25290738  0.07615548  0.14709606     0.20500
F1113       F  0.26133605  0.08903618  0.16809729    -0.12400
F1114       F  0.21565810  0.06245175  0.17085508    -0.14700
F1115       F  0.27252484  0.06123122  0.08128227    -0.14700
F1116       F  0.22692187  0.03466476  0.08401160    -0.12400
C1117       C  0.47782558  0.14397822  0.12483283     0.25700
C1118       C  0.46803311  0.11900795  0.13003411    -0.22500
C1119       C  0.48617117  0.09933626  0.13572098     0.20600
C1120       C  0.51336847  0.10438686  0.13550403     0.25600
C1121       C  0.52292643  0.12929979  0.13029605    -0.22400
C1122       C  0.50494161  0.14906136  0.12521230     0.20500
F1123       F  0.51371026  0.17309785  0.11951624    -0.12400
F1124       F  0.46114896  0.16364628  0.11939139    -0.14700
F1125       F  0.53045953  0.08489806  0.14034576    -0.14700
F1126       F  0.47769258  0.07502467  0.14059637    -0.12400
C1127       C  0.38619948  0.10982467  0.23829740     0.25700
C1128       C  0.36611063  0.12047587  0.22305823    -0.22500
C1129       C  0.34834161  0.13796336  0.23445581     0.20600
C1130       C  0.35051438  0.14435552  0.26034811     0.25600
C1131       C  0.37047550  0.13346708  0.27554394    -0.22400
C1132       C  0.38834768  0.11621757  0.26408434     0.20500
F1133       F  0.40826269  0.10551170  0.27774074    -0.12400
F1134       F  0.40404937  0.09315432  0.22836619    -0.14700
F1135       F  0.33267009  0.16085317  0.27057124    -0.14700
F1136       F  0.32879239  0.14908787  0.22063856    -0.12400
C1137       C  0.15921617  0.48345816  0.48850424     0.25700
C1138       C  0.13574069  0.48900845  0.47536338    -0.22500
C1139       C  0.11290316  0.49523099  0.48925306     0.20600
C1140       C  0.11340035  0.49533446  0.51587440     0.25600
C1141       C  0.13670136  0.48913910  0.52895632    -0.22400
C1142       C  0.15965375  0.48344491  0.51510195     0.20500
F1143       F  0.18257051  0.47802443  0.52734049    -0.12400
F1144       F  0.18180994  0.47819868  0.47561732    -0.14700
F1145       F  0.09074506  0.50010341  0.52884412    -0.14700
F1146       F  0.08975997  0.49993994  0.47712455    -0.12400
C1147       C  0.13682710  0.25446498  0.51338636     0.25700
C1148       C  0.12897835  0.23225772  0.52671703    -0.22500
C1149       C  0.12176378  0.21016070  0.51297834     0.20600
C1150       C  0.12217068  0.21029710  0.48628292     0.25600
C1151       C  0.13045049  0.23237338  0.47283196    -0.22400
C1152       C  0.13788463  0.25444299  0.48668220     0.20500
F1153       F  0.14592800  0.27611088  0.47440149    -0.12400
F1154       F  0.14441201  0.27589405  0.52627339    -0.14700
F1155       F  0.11521812  0.18853231  0.47362646    -0.14700
F1156       F  0.11404893  0.18848266  0.52543994    -0.12400
C1157       C  0.14075514  0.34297437  0.60382329     0.25700
C1158       C  0.14586916  0.32949687  0.62653388    -0.22500
C1159       C  0.14589446  0.34290132  0.64982628     0.20600
C1160       C  0.14026762  0.36935407  0.65037874     0.25600
C1161       C  0.13474646  0.38273988  0.62759104    -0.22400
C1162       C  0.13532132  0.36923766  0.60431000     0.20500
F1163       F  0.13012816  0.38138767  0.58189813    -0.12400
F1164       F  0.14048936  0.33047966  0.58105269    -0.14700
F1165       F  0.14070762  0.38191642  0.67308067    -0.14700
F1166       F  0.15006020  0.33016577  0.67210606    -0.12400
C1167       C  0.15722088  0.12276934  0.63009490     0.25700
C1168       C  0.13228849  0.13386251  0.63471798    -0.22500
C1169       C  0.11072279  0.11787266  0.63992910     0.20600
C1170       C  0.11369574  0.09114839  0.63903951     0.25600
C1171       C  0.13840816  0.08006911  0.63337155    -0.22400
C1172       C  0.16028819  0.09606111  0.62965367     0.20500
F1173       F  0.18423558  0.08589359  0.62405571    -0.12400
F1174       F  0.17857765  0.13787204  0.62546240    -0.14700
F1175       F  0.09226006  0.07603004  0.64324829    -0.14700
F1176       F  0.08651629  0.12805824  0.64431642    -0.12400
C1177       C  0.12454151  0.24542139  0.98694180     0.25700
C1178       C  0.12703907  0.26921301  0.97423383    -0.22500
C1179       C  0.13017137  0.29183360  0.98867681     0.20600
C1180       C  0.12989370  0.29077598  0.01529429     0.25600
C1181       C  0.12715440  0.26709548  0.02788512    -0.22400
C1182       C  0.12492164  0.24436142  0.01362783     0.20500
F1183       F  0.12231993  0.22127516  0.02555875    -0.12400
F1184       F  0.12201874  0.22319599  0.97354160    -0.14700
F1185       F  0.13258811  0.31288223  0.02886097    -0.14700
F1186       F  0.13263858  0.31510193  0.97707197    -0.12400
C1187       C  0.10593791  0.25772231  0.76193218     0.25700
C1188       C  0.12894191  0.25906497  0.77691299    -0.22500
C1189       C  0.15335470  0.25358207  0.76523956     0.20600
C1190       C  0.15474387  0.24692302  0.73936443     0.25600
C1191       C  0.13174558  0.24512094  0.72449826    -0.22400
C1192       C  0.10730150  0.25058795  0.73609034     0.20500
F1193       F  0.08471592  0.24967373  0.72224278    -0.12400
F1194       F  0.08200303  0.26269091  0.77241025    -0.14700
F1195       F  0.17867613  0.24176249  0.72896110    -0.14700
F1196       F  0.17609902  0.25498157  0.77880785    -0.12400
C1197       C  0.14530902  0.00762370  0.01253455     0.25700
C1198       C  0.12426100  0.01819930  0.02667360    -0.22500
C1199       C  0.10321127  0.02949560  0.01311405     0.20600
C1200       C  0.10330398  0.03039021  0.98640006     0.25600
C1201       C  0.12439169  0.01993359  0.97224434    -0.22400
C1202       C  0.14537192  0.00848647  0.98575647     0.20500
F1203       F  0.16632775  0.99839162  0.97315462    -0.12400
F1204       F  0.16613848  0.99656861  0.02451758    -0.14700
F1205       F  0.08240586  0.04141044  0.97448680    -0.14700
F1206       F  0.08224733  0.03975320  0.02559260    -0.12400
C1207       C  0.10922161  0.41262887  0.85630527     0.25700
C1208       C  0.12923775  0.42438357  0.87128160    -0.22500
C1209       C  0.14622720  0.40851678  0.88534503     0.20600
C1210       C  0.14241026  0.38186329  0.88561570     0.25600
C1211       C  0.12154951  0.37042977  0.87175677    -0.22400
C1212       C  0.10548225  0.38601482  0.85662375     0.20500
F1213       F  0.08549352  0.37564278  0.84280606    -0.12400
F1214       F  0.09267490  0.42678991  0.84155259    -0.14700
F1215       F  0.15942256  0.36718286  0.89933405    -0.14700
F1216       F  0.16635746  0.41868248  0.89911072    -0.12400
C1217       C  0.13198966  0.13481115  0.85230680     0.25700
C1218       C  0.11858949  0.12128537  0.87189568    -0.22500
C1219       C  0.11090629  0.13488593  0.89391238     0.20600
C1220       C  0.11638485  0.16111689  0.89623685     0.25600
C1221       C  0.12955733  0.17453291  0.87660296    -0.22400
C1222       C  0.13747447  0.16107691  0.85472636     0.20500
F1223       F  0.14951196  0.17354546  0.83511339    -0.12400
F1224       F  0.13983460  0.12277091  0.83060675    -0.14700
F1225       F  0.10870137  0.17345333  0.91784785    -0.14700
F1226       F  0.09826326  0.12289174  0.91345586    -0.12400
C1227       C  0.14631619  0.01643487  0.76038560     0.25700
C1228       C  0.12378997  0.00897088  0.77423464    -0.22500
C1229       C  0.10690997  0.49616846  0.76274833     0.20600
C1230       C  0.11034000  0.48815900  0.73751295     0.25600
C1231       C  0.13386438  0.49372825  0.72426940    -0.22400
C1232       C  0.14953994  0.00897297  0.73495249     0.20500
F1233       F  0.17180543  0.01649233  0.72260705    -0.12400
F1234       F  0.16571857  0.03046585  0.77157096    -0.14700
F1235       F  0.09026975  0.47535456  0.72599797    -0.14700
F1236       F  0.08373319  0.49071041  0.77457486    -0.12400
C1237       C  0.84271185  0.47434327  0.99070303     0.25700
C1238       C  0.86344053  0.48656834  0.97752629    -0.22500
C1239       C  0.88381899  0.49831919  0.99147594     0.20600
C1240       C  0.88372338  0.49749139  0.01804665     0.25600
C1241       C  0.86323086  0.48491691  0.03121669    -0.22400
C1242       C  0.84261504  0.47350857  0.01727265     0.20500
F1243       F  0.82221144  0.46160385  0.02927192    -0.12400
F1244       F  0.82239022  0.46321463  0.97793558    -0.14700
F1245       F  0.90123029  0.01560793  0.03181391    -0.14700
F1246       F  0.90120558  0.01628048  0.98044045    -0.12400
C1247       C  0.97850111  0.00914169  0.90106278     0.25700
C1248       C  0.96831991  0.49350624  0.88211507    -0.22500
C1249       C  0.98546892  0.48056418  0.86543960     0.20600
C1250       C  0.01214369  0.48735475  0.86403576     0.25600
C1251       C  0.02045211  0.00833687  0.87840251    -0.22400
C1252       C  0.00508059  0.01626115  0.89930940     0.20500
F1253       F  0.01575197  0.03063858  0.91831497    -0.12400
F1254       F  0.96449833  0.01727028  0.92163279    -0.14700
F1255       F  0.02757956  0.47409170  0.84745858    -0.14700
F1256       F  0.97646516  0.46149915  0.85001959    -0.12400
C1257       C  0.88791150  0.23859851  0.97987705     0.25700
C1258       C  0.86411787  0.23539352  0.96649147    -0.22500
C1259       C  0.84069475  0.23146126  0.98035123     0.20600
C1260       C  0.84118408  0.23000470  0.00707322     0.25600
C1261       C  0.86499242  0.23316949  0.02046637    -0.22400
C1262       C  0.88829776  0.23782939  0.00660040     0.20500
F1263       F  0.91164646  0.24085357  0.01889055    -0.12400
F1264       F  0.91080007  0.24277988  0.96706036    -0.14700
F1265       F  0.81829179  0.22587514  0.01988323    -0.14700
F1266       F  0.81744088  0.22813667  0.96798110    -0.12400
C1267       C  0.85128857  0.37156756  0.89451145     0.25700
C1268       C  0.86285993  0.38541226  0.87399717    -0.22500
C1269       C  0.86708772  0.37254229  0.85076704     0.20600
C1270       C  0.86152026  0.34630338  0.84862020     0.25600
C1271       C  0.85168091  0.33228366  0.86962915    -0.22400
C1272       C  0.84571330  0.34531758  0.89225638     0.20500
F1273       F  0.83614861  0.33234387  0.91280369    -0.12400
F1274       F  0.84590501  0.38313038  0.91715683    -0.14700
F1275       F  0.86640891  0.33435120  0.82605782    -0.14700
F1276       F  0.87660644  0.38523199  0.83003862    -0.12400
C1277       C  0.84842937  0.09696942  0.85665220     0.25700
C1278       C  0.86308453  0.08352378  0.87511073    -0.22500
C1279       C  0.88228368  0.09711513  0.88929583     0.20600
C1280       C  0.88643499  0.12336081  0.88533192     0.25600
C1281       C  0.87153091  0.13687897  0.86716119    -0.22400
C1282       C  0.85258266  0.12329943  0.85271477     0.20500
F1283       F  0.83745369  0.13553031  0.83512360    -0.12400
F1284       F  0.83027492  0.08466124  0.84205405    -0.14700
F1285       F  0.90514899  0.13549238  0.89942774    -0.14700
F1286       F  0.89724526  0.08513507  0.90720348    -0.12400
C1287       C  0.01076651  0.24323476  0.89083381     0.25700
C1288       C  0.02243007  0.26106927  0.87374126    -0.22500
C1289       C  0.00613374  0.27321170  0.85566558     0.20600
C1290       C  0.97912261  0.26779072  0.85468461     0.25600
C1291       C  0.96749890  0.24996341  0.87172383    -0.22400
C1292       C  0.98374878  0.23779243  0.88981188     0.20500
F1293       F  0.97355426  0.22073342  0.90684194    -0.12400
F1294       F  0.02542030  0.23072488  0.90862022    -0.14700
F1295       F  0.96446793  0.27994168  0.83666717    -0.14700
F1296       F  0.01626445  0.29022532  0.83857638    -0.12400
C1297       C  0.90120744  0.26778996  0.47862692     0.25700
C1298       C  0.87700296  0.27076053  0.46586089    -0.22500
C1299       C  0.85389254  0.27428530  0.48019583     0.20600
C1300       C  0.85500062  0.27534510  0.50682495     0.25600
C1301       C  0.87916152  0.27229781  0.51961513    -0.22400
C1302       C  0.90223690  0.26828333  0.50529913     0.20500
F1303       F  0.92591509  0.26568527  0.51708323    -0.12400
F1304       F  0.92385845  0.26418932  0.46527463    -0.14700
F1305       F  0.83235345  0.27906552  0.52013448    -0.14700
F1306       F  0.83034078  0.27765542  0.46838890    -0.12400
C1307       C  0.99814411  0.27967172  0.62901940     0.25700
C1308       C  0.97930890  0.26006908  0.62641646    -0.22500
C1309       C  0.98773863  0.23423887  0.62534567     0.20600
C1310       C  0.01456194  0.22815646  0.62648827     0.25600
C1311       C  0.03344614  0.24781662  0.62809597    -0.22400
C1312       C  0.02502223  0.27362354  0.62950866     0.20500
F1313       F  0.04287844  0.29301073  0.63150236    -0.12400
F1314       F  0.99059713  0.30470764  0.63005732    -0.14700
F1315       F  0.02211636  0.20314218  0.62497480    -0.14700
F1316       F  0.96991974  0.21481795  0.62330888    -0.12400
C1317       C  0.85491822  0.24156855  0.72548975     0.25700
C1318       C  0.87212698  0.26075136  0.71598077    -0.22500
C1319       C  0.88834111  0.27394797  0.73338215     0.20600
C1320       C  0.88746836  0.26815270  0.75942967     0.25600
C1321       C  0.87027795  0.24896330  0.76895324    -0.22400
C1322       C  0.85400498  0.23580312  0.75157788     0.20500
F1323       F  0.83696257  0.21736063  0.75971928    -0.12400
F1324       F  0.83895938  0.22804060  0.70959835    -0.14700
F1325       F  0.90368015  0.28149904  0.77523852    -0.14700
F1326       F  0.90514548  0.29264712  0.72534545    -0.12400
C1327       C  0.85481894  0.01011942  0.51760258     0.25700
C1328       C  0.87656754  0.02039406  0.53094380    -0.22500
C1329       C  0.89824244  0.02945452  0.51662748     0.20600
C1330       C  0.89784777  0.02903406  0.48989050     0.25600
C1331       C  0.87570709  0.01965654  0.47651427    -0.22400
C1332       C  0.85442358  0.00969540  0.49081980     0.20500
F1333       F  0.83282553  0.99991527  0.47899843    -0.12400
F1334       F  0.83349303  0.00091949  0.53037434    -0.14700
F1335       F  0.91941626  0.03777292  0.47717823    -0.14700
F1336       F  0.92010652  0.03870375  0.52841559    -0.12400
C1337       C  0.86756936  0.41361913  0.60507366     0.25700
C1338       C  0.87688095  0.42687819  0.62652862    -0.22500
C1339       C  0.89027005  0.41297445  0.64575181     0.20600
C1340       C  0.89419548  0.38646994  0.64353821     0.25600
C1341       C  0.88484455  0.37309885  0.62205711    -0.22400
C1342       C  0.87157606  0.38713239  0.60276013     0.20500
F1343       F  0.86219452  0.37534976  0.58149870    -0.12400
F1344       F  0.85525967  0.42636445  0.58584739    -0.14700
F1345       F  0.90702309  0.37399417  0.66262497    -0.14700
F1346       F  0.89955848  0.42497913  0.66694917    -0.12400
C1347       C  0.89346807  0.13541481  0.60563297     0.25700
C1348       C  0.88267747  0.12291260  0.62714402    -0.22500
C1349       C  0.86719628  0.13743547  0.64430259     0.20600
C1350       C  0.86257394  0.16356947  0.63999112     0.25600
C1351       C  0.87344058  0.17597625  0.61857183    -0.22400
C1352       C  0.88887212  0.16156814  0.60140536     0.20500
F1353       F  0.89962136  0.17277727  0.58038520    -0.12400
F1354       F  0.90841294  0.12242157  0.58843733    -0.14700
F1355       F  0.84823839  0.17689865  0.65742454    -0.14700
F1356       F  0.85630942  0.12647973  0.66537496    -0.12400
C1357       C  0.99311125  0.49134888  0.64726519     0.25700
C1358       C  0.97946713  0.01041919  0.62853925    -0.22500
C1359       C  0.99496316  0.01719786  0.60729874     0.20600
C1360       C  0.02119358  0.00915415  0.60560076     0.25600
C1361       C  0.03614350  0.49306770  0.62681965    -0.22400
C1362       C  0.01944304  0.48352626  0.64601768     0.20500
F1363       F  0.02864422  0.46707925  0.66408815    -0.12400
F1364       F  0.97796892  0.48163709  0.66638472    -0.14700
F1365       F  0.03522882  0.01596652  0.58455248    -0.14700
F1366       F  0.98469512  0.03121326  0.58780982    -0.12400
C1367       C  0.88488544  0.98799384  0.73959726     0.25700
C1368       C  0.87450278  0.01123356  0.72974393    -0.22500
C1369       C  0.86138259  0.02794988  0.74662248     0.20600
C1370       C  0.85885505  0.02172498  0.77253637     0.25600
C1371       C  0.87239210  0.49917548  0.78184574    -0.22400
C1372       C  0.89230538  0.48798499  0.76678027     0.20500
F1373       F  0.90883760  0.47003778  0.77667761    -0.12400
F1374       F  0.89714999  0.97077597  0.72415313    -0.14700
F1375       F  0.84658922  0.03878827  0.78814150    -0.14700
F1376       F  0.85109449  0.05052368  0.73820925    -0.12400
C1377       C  0.40008783  0.39500770  0.52324468     0.25700
C1378       C  0.37643061  0.39313593  0.53720185    -0.22500
C1379       C  0.35243375  0.39065134  0.52392615     0.20600
C1380       C  0.35205536  0.39088290  0.49725485     0.25600
C1381       C  0.37565457  0.39296122  0.48343636    -0.22400
C1382       C  0.39969830  0.39461711  0.49658070     0.20500
F1383       F  0.42276278  0.39677445  0.48357045    -0.12400
F1384       F  0.42364347  0.39699862  0.53537383    -0.14700
F1385       F  0.32864955  0.38875711  0.48488963    -0.14700
F1386       F  0.32922628  0.38877165  0.53672098    -0.12400
C1387       C  0.26611552  0.42141814  0.61245353     0.25700
C1388       C  0.28129696  0.42373784  0.63477026    -0.22500
C1389       C  0.27224155  0.44029380  0.65429659     0.20600
C1390       C  0.24895092  0.45441223  0.65140356     0.25600
C1391       C  0.23389962  0.45229460  0.62900626    -0.22400
C1392       C  0.24279670  0.43549201  0.60958258     0.20500
F1393       F  0.22903250  0.43267969  0.58753006    -0.12400
F1394       F  0.27415650  0.40613309  0.59293741    -0.14700
F1395       F  0.24080030  0.46956894  0.67096024    -0.14700
F1396       F  0.28586865  0.44284214  0.67644879    -0.12400
C1397       C  0.39511563  0.15938755  0.51481833     0.25700
C1398       C  0.37590083  0.14566088  0.52877039    -0.22500
C1399       C  0.35628719  0.13225308  0.51502216     0.20600
C1400       C  0.35595536  0.13261653  0.48828576     0.25600
C1401       C  0.37520390  0.14628100  0.47431526    -0.22400
C1402       C  0.39481193  0.15971334  0.48805483     0.20500
F1403       F  0.41375611  0.17336731  0.47570585    -0.12400
F1404       F  0.41444034  0.17270626  0.52696277    -0.14700
F1405       F  0.33645915  0.11948780  0.47619374    -0.14700
F1406       F  0.33713280  0.11884708  0.52734006    -0.12400
C1407       C  0.36897811  0.28332435  0.65465157     0.25700
C1408       C  0.37036339  0.29728769  0.63178804    -0.22500
C1409       C  0.37678595  0.28455821  0.60903034     0.20600
C1410       C  0.38176535  0.25804483  0.60913158     0.25600
C1411       C  0.38020228  0.24386584  0.63206221    -0.22400
C1412       C  0.37362470  0.25687594  0.65482179     0.20500
F1413       F  0.37201676  0.24411464  0.67742025    -0.12400
F1414       F  0.36347988  0.29548213  0.67697139    -0.14700
F1415       F  0.38768218  0.24626223  0.58673546    -0.14700
F1416       F  0.37937521  0.29801914  0.58693348    -0.12400
C1417       C  0.37517570  0.03526618  0.65286703     0.25700
C1418       C  0.36906990  0.04660238  0.62913293    -0.22500
C1419       C  0.36734463  0.03089827  0.60742234     0.20600
C1420       C  0.37238199  0.00438481  0.60933857     0.25600
C1421       C  0.37981796  0.49458688  0.63193072    -0.22400
C1422       C  0.37988824  0.00889491  0.65482962     0.20500
F1423       F  0.35069238  0.49629707  0.66841052    -0.12400
F1424       F  0.37691433  0.04990803  0.67427894    -0.14700
F1425       F  0.40782428  0.49598178  0.59476863    -0.14700
F1426       F  0.36190443  0.04134714  0.58425988    -0.12400
C1427       C  0.26745321  0.18399145  0.64778188     0.25700
C1428       C  0.27834033  0.17264833  0.62568494    -0.22500
C1429       C  0.26527371  0.17608048  0.60228606     0.20600
C1430       C  0.24199838  0.19064133  0.60103121     0.25600
C1431       C  0.23126473  0.20218115  0.62316937    -0.22400
C1432       C  0.24435135  0.19860628  0.64652733     0.20500
F1433       F  0.23428120  0.20841211  0.66847227    -0.12400
F1434       F  0.27914104  0.18077424  0.67087915    -0.14700
F1435       F  0.23012624  0.19367885  0.57799985    -0.14700
F1436       F  0.27554889  0.16625503  0.58043665    -0.12400
C1437       C  0.38762302  0.36075461  0.99732280     0.25700
C1438       C  0.36392959  0.36081174  0.98348218    -0.22500
C1439       C  0.33985705  0.36114683  0.99680268     0.20600
C1440       C  0.33952889  0.36134552  0.02356720     0.25600
C1441       C  0.36327887  0.36044903  0.03743627    -0.22400
C1442       C  0.38731730  0.36028415  0.02401209     0.20500
F1443       F  0.41061053  0.35987388  0.03673988    -0.12400
F1444       F  0.41114142  0.36016161  0.98495391    -0.14700
F1445       F  0.31597355  0.36152779  0.03588959    -0.14700
F1446       F  0.31666595  0.36155133  0.98389779    -0.12400
C1447       C  0.26737933  0.30179919  0.87721553     0.25700
C1448       C  0.26963069  0.32888166  0.87530327    -0.22500
C1449       C  0.24695215  0.34334971  0.86997539     0.20600
C1450       C  0.22232143  0.33115565  0.86837679     0.25600
C1451       C  0.22004709  0.30423212  0.87150278    -0.22400
C1452       C  0.24287257  0.28963132  0.87513569     0.20500
F1453       F  0.24129089  0.26371637  0.87815237    -0.12400
F1454       F  0.28899119  0.28697227  0.88131295    -0.14700
F1455       F  0.20055890  0.34570922  0.86406809    -0.14700
F1456       F  0.24840375  0.36932802  0.86749047    -0.12400
C1457       C  0.38859132  0.35663668  0.77109769     0.25700
C1458       C  0.36902604  0.36859015  0.78601832    -0.22500
C1459       C  0.35239417  0.38686256  0.77427161     0.20600
C1460       C  0.35565700  0.39339610  0.74856763     0.25600
C1461       C  0.37553685  0.38177757  0.73378704    -0.22400
C1462       C  0.39181447  0.36314094  0.74539291     0.20500
F1463       F  0.41112476  0.35113636  0.73198697    -0.12400
F1464       F  0.40488189  0.33864725  0.78129223    -0.14700
F1465       F  0.33895713  0.41090161  0.73816454    -0.14700
F1466       F  0.33291781  0.39871529  0.78759077    -0.12400
C1467       C  0.36354661  0.08484030  0.98754189     0.25700
C1468       C  0.37115653  0.10706030  0.97401782    -0.22500
C1469       C  0.37962015  0.12889102  0.98756417     0.20600
C1470       C  0.37990032  0.12876497  0.01417610     0.25600
C1471       C  0.37162441  0.10673761  0.02770625    -0.22400
C1472       C  0.36377688  0.08471602  0.01406566     0.20500
F1473       F  0.35651928  0.06273388  0.02630430    -0.12400
F1474       F  0.35622350  0.06302913  0.97515706    -0.14700
F1475       F  0.38756992  0.15041962  0.02659898    -0.14700
F1476       F  0.38697095  0.15073286  0.97514175    -0.12400
C1477       C  0.36533338  0.47031222  0.90390461     0.25700
C1478       C  0.36373801  0.45587915  0.88141223    -0.22500
C1479       C  0.36849355  0.46798802  0.85780288     0.20600
C1480       C  0.37428321  0.49441371  0.85676907     0.25600
C1481       C  0.37789430  0.00910603  0.87641457    -0.22400
C1482       C  0.37085638  0.49656464  0.90294253     0.20500
F1483       F  0.38580268  0.01101822  0.92158032    -0.12400
F1484       F  0.36136666  0.45890590  0.92693812    -0.14700
F1485       F  0.36960681  0.00531492  0.83151804    -0.14700
F1486       F  0.36837688  0.45407009  0.83587907    -0.12400
C1487       C  0.35531056  0.22045694  0.85779813     0.25700
C1488       C  0.35713408  0.20562195  0.88017357    -0.22500
C1489       C  0.36434639  0.21768683  0.90317794     0.20600
C1490       C  0.36976424  0.24398869  0.90383852     0.25600
C1491       C  0.36842678  0.25882580  0.88145042    -0.22400
C1492       C  0.36107335  0.24687470  0.85839822     0.20500
F1493       F  0.35887330  0.26086754  0.83659837    -0.12400
F1494       F  0.34919069  0.20918631  0.83519391    -0.14700
F1495       F  0.37682646  0.25490069  0.92637150    -0.14700
F1496       F  0.36657241  0.20381714  0.92507569    -0.12400
C1497       C  0.26056033  0.05935129  0.89519461     0.25700
C1498       C  0.26826326  0.07790799  0.87677985    -0.22500
C1499       C  0.25084959  0.08323102  0.85663186     0.20600
C1500       C  0.22672411  0.07022019  0.85468352     0.25600
C1501       C  0.21909774  0.05148850  0.87296951    -0.22400
C1502       C  0.23641259  0.04633587  0.89326422     0.20500
F1503       F  0.22988684  0.02900768  0.91164849    -0.12400
F1504       F  0.27633109  0.05373017  0.91536903    -0.14700
F1505       F  0.21090763  0.07607127  0.83460595    -0.14700
F1506       F  0.25731946  0.10064772  0.83831677    -0.12400
C1507       C  0.35116080  0.13980579  0.76806112     0.25700
C1508       C  0.36458388  0.11857330  0.77864534    -0.22500
C1509       C  0.38013373  0.10315343  0.76254203     0.20600
C1510       C  0.38270522  0.10907754  0.73670129     0.25600
C1511       C  0.36983081  0.13067921  0.72618128    -0.22400
C1512       C  0.35375220  0.14577864  0.74215695     0.20500
F1513       F  0.34070768  0.16660236  0.73291627    -0.12400
F1514       F  0.33608205  0.15539925  0.78284966    -0.14700
F1515       F  0.39786299  0.09340802  0.72206363    -0.14700
F1516       F  0.39297793  0.08217403  0.77170188    -0.12400
C1517       C  0.61052474  0.36446295  0.50266974     0.25700
C1518       C  0.63409174  0.36044445  0.51624967    -0.22500
C1519       C  0.65776633  0.35749959  0.50255569     0.20600
C1520       C  0.65778689  0.35794330  0.47581320     0.25600
C1521       C  0.63404532  0.36059053  0.46226848    -0.22400
C1522       C  0.61045620  0.36417450  0.47592487     0.20500
F1523       F  0.58733896  0.36760531  0.46334012    -0.12400
F1524       F  0.58736971  0.36770331  0.51527397    -0.14700
F1525       F  0.68090202  0.35477298  0.46314012    -0.14700
F1526       F  0.68095292  0.35437844  0.51508565    -0.12400
C1527       C  0.75890898  0.28741146  0.61953000     0.25700
C1528       C  0.78156701  0.30268890  0.62167839    -0.22500
C1529       C  0.77880874  0.32950258  0.62495977     0.20600
C1530       C  0.75385435  0.34097194  0.62495289     0.25600
C1531       C  0.73126542  0.32591425  0.62104364    -0.22400
C1532       C  0.73398479  0.29892199  0.61895139     0.20500
F1533       F  0.71243974  0.28361622  0.61626900    -0.12400
F1534       F  0.76094511  0.26150713  0.61676154    -0.14700
F1535       F  0.75189930  0.36688441  0.62762331    -0.14700
F1536       F  0.80039633  0.34465799  0.62807313    -0.12400
C1537       C  0.52132193  0.38560036  0.60600785     0.25700
C1538       C  0.53359257  0.36711170  0.62182369    -0.22500
C1539       C  0.51860160  0.35571608  0.64145685     0.20600
C1540       C  0.49224812  0.36267588  0.64525900     0.25600
C1541       C  0.48002366  0.38124889  0.62950087    -0.22400
C1542       C  0.49500618  0.39257741  0.60982899     0.20500
F1543       F  0.48419608  0.41024203  0.59385435    -0.12400
F1544       F  0.53470816  0.39716639  0.58667175    -0.14700
F1545       F  0.47881534  0.35111879  0.66456664    -0.14700
F1546       F  0.52945765  0.33806893  0.65742227    -0.12400
C1547       C  0.61992446  0.12758330  0.51173963     0.25700
C1548       C  0.62846093  0.10552421  0.52504065    -0.22500
C1549       C  0.63643172  0.08377873  0.51108105     0.20600
C1550       C  0.63630668  0.08416286  0.48452074     0.25600
C1551       C  0.62819134  0.10631958  0.47114328    -0.22400
C1552       C  0.61984496  0.12799613  0.48506437     0.20500
F1553       F  0.61214911  0.14986433  0.47297359    -0.12400
F1554       F  0.61219966  0.14905240  0.52445947    -0.14700
F1555       F  0.64391878  0.06254105  0.47198619    -0.14700
F1556       F  0.64405312  0.06181677  0.52305438    -0.12400
C1557       C  0.62535673  0.49383967  0.59941724     0.25700
C1558       C  0.62485514  0.00644007  0.62722617    -0.22500
C1559       C  0.63961108  0.49249127  0.64358978     0.20600
C1560       C  0.64493822  0.46612684  0.64113732     0.25600
C1561       C  0.64030302  0.45349296  0.61780040    -0.22400
C1562       C  0.63035523  0.46761302  0.59704155     0.20500
F1563       F  0.62561958  0.45599694  0.57428096    -0.12400
F1564       F  0.60554060  0.00659945  0.58552424    -0.14700
F1565       F  0.65383162  0.45283773  0.66172814    -0.14700
F1566       F  0.64555778  0.00484144  0.66830619    -0.12400
C1567       C  0.63185083  0.24206128  0.59625351     0.25700
C1568       C  0.63259143  0.25664794  0.61885110    -0.22500
C1569       C  0.63902886  0.24430071  0.64199634     0.20600
C1570       C  0.64427229  0.21779484  0.64248030     0.25600
C1571       C  0.64292052  0.20329397  0.61989982    -0.22400
C1572       C  0.63682735  0.21569900  0.59681600     0.20500
F1573       F  0.63532389  0.20210138  0.57472806    -0.12400
F1574       F  0.62579958  0.25324384  0.57355823    -0.14700
F1575       F  0.64942387  0.20610913  0.66513095    -0.14700
F1576       F  0.64076883  0.25792956  0.66402908    -0.12400
C1577       C  0.74704085  0.08120848  0.64517363     0.25700
C1578       C  0.73102002  0.07653321  0.62379845    -0.22500
C1579       C  0.73999014  0.05893934  0.60515229     0.20600
C1580       C  0.76429723  0.04647897  0.60782599     0.25600
C1581       C  0.78037544  0.05125522  0.62918000    -0.22400
C1582       C  0.77128437  0.06873198  0.64787869     0.20500
F1583       F  0.78575158  0.07378713  0.66908800    -0.12400
F1584       F  0.73900594  0.09735520  0.66398676    -0.14700
F1585       F  0.77226364  0.03019272  0.58910072    -0.14700
F1586       F  0.72535502  0.05380910  0.58406304    -0.12400
C1587       C  0.49360337  0.13954098  0.60761245     0.25700
C1588       C  0.47809156  0.13389157  0.62912342    -0.22500
C1589       C  0.49006716  0.12146092  0.65014281     0.20600
C1590       C  0.51675213  0.11456999  0.64946157     0.25600
C1591       C  0.53216854  0.11994276  0.62778086    -0.22400
C1592       C  0.52020893  0.13258985  0.60689114     0.20500
F1593       F  0.53411214  0.13786317  0.58534119    -0.12400
F1594       F  0.48286550  0.15100017  0.58677328    -0.14700
F1595       F  0.52756842  0.10317925  0.67030581    -0.14700
F1596       F  0.47602781  0.11613869  0.67160213    -0.12400
C1597       C  0.60273943  0.38577222  0.97452558     0.25700
C1598       C  0.62606907  0.39261431  0.96178664    -0.22500
C1599       C  0.64888145  0.39783622  0.97599543     0.20600
C1600       C  0.64813409  0.39715333  0.00268650     0.25600
C1601       C  0.62465973  0.39063336  0.01558230    -0.22400
C1602       C  0.60208862  0.38448093  0.00117423     0.20500
F1603       F  0.57909061  0.37807026  0.01284694    -0.12400
F1604       F  0.58060798  0.38008177  0.96109656    -0.14700
F1605       F  0.67041986  0.40278507  0.01588560    -0.14700
F1606       F  0.67164089  0.40452563  0.96403410    -0.12400
C1607       C  0.73027557  0.44523654  0.84720041     0.25700
C1608       C  0.72168043  0.42657653  0.86511352    -0.22500
C1609       C  0.73710574  0.42250420  0.88702352     0.20600
C1610       C  0.76014858  0.43673329  0.89107876     0.25600
C1611       C  0.76877762  0.45541441  0.87319349    -0.22400
C1612       C  0.75344500  0.45942814  0.85121163     0.20500
F1613       F  0.76108294  0.47669772  0.83318505    -0.12400
F1614       F  0.71629047  0.44991580  0.82560596    -0.14700
F1615       F  0.77398849  0.43201070  0.91276500    -0.14700
F1616       F  0.72968246  0.40512390  0.90504113    -0.12400
C1617       C  0.50567073  0.39856389  0.88675215     0.25700
C1618       C  0.52220609  0.38246369  0.87223943    -0.22500
C1619       C  0.51137038  0.35956530  0.86210575     0.20600
C1620       C  0.48481237  0.35324550  0.86596763     0.25600
C1621       C  0.46818006  0.36954389  0.88009765    -0.22400
C1622       C  0.47910063  0.39222210  0.89063274     0.20500
F1623       F  0.46399177  0.40880195  0.90429279    -0.12400
F1624       F  0.51502754  0.42071863  0.89708630    -0.14700
F1625       F  0.47550023  0.33095742  0.85588854    -0.14700
F1626       F  0.52650173  0.34284538  0.84865356    -0.12400
C1627       C  0.64206503  0.39842431  0.74909838     0.25700
C1628       C  0.62464819  0.38467592  0.76506518    -0.22500
C1629       C  0.61040482  0.36387619  0.75452696     0.20600
C1630       C  0.61382446  0.35678385  0.72901139     0.25600
C1631       C  0.63150020  0.37028799  0.71315122    -0.22400
C1632       C  0.64543748  0.39135007  0.72353421     0.20500
F1633       F  0.66222825  0.40548219  0.70894777    -0.12400
F1634       F  0.65616074  0.41868277  0.75814750    -0.14700
F1635       F  0.59984171  0.33643052  0.72000362    -0.14700
F1636       F  0.59321913  0.34998310  0.76890075    -0.12400
C1637       C  0.60022181  0.13929334  0.98221154     0.25700
C1638       C  0.62398383  0.14316463  0.96891673    -0.22500
C1639       C  0.64755423  0.14550476  0.98278788     0.20600
C1640       C  0.64730804  0.14464264  0.00950899     0.25600
C1641       C  0.62352137  0.14082902  0.02290552    -0.22400
C1642       C  0.60002222  0.13780763  0.00892899     0.20500
F1643       F  0.57668286  0.13424131  0.02113445    -0.12400
F1644       F  0.57720629  0.13657069  0.96928885    -0.14700
F1645       F  0.67043136  0.14733829  0.02226169    -0.14700
F1646       F  0.67076554  0.14949774  0.97047247    -0.12400
C1647       C  0.61867690  0.25951005  0.84487242     0.25700
C1648       C  0.62164884  0.24595257  0.86789091    -0.22500
C1649       C  0.63053447  0.25913049  0.88973406     0.20600
C1650       C  0.63590533  0.28559467  0.88859591     0.25600
C1651       C  0.63215125  0.29920035  0.86569260    -0.22400
C1652       C  0.62373263  0.28584318  0.84381251     0.20500
F1653       F  0.62015016  0.29841903  0.82132597    -0.12400
F1654       F  0.61047889  0.24727891  0.82338908    -0.14700
F1655       F  0.64369067  0.29807848  0.91006210    -0.14700
F1656       F  0.63469552  0.24627849  0.91194859    -0.12400
C1657       C  0.62270793  0.03758008  0.84485873     0.25700
C1658       C  0.62625508  0.04937376  0.86876810    -0.22500
C1659       C  0.62429638  0.03445760  0.89100812     0.20600
C1660       C  0.61913277  0.00800832  0.88934396     0.25600
C1661       C  0.62280636  0.49542515  0.86736053    -0.22400
C1662       C  0.61801049  0.01117242  0.84311976     0.20500
F1663       F  0.66918318  0.49236560  0.85841247    -0.12400
F1664       F  0.62372381  0.05176983  0.82307219    -0.14700
F1665       F  0.61773296  0.99402506  0.91121873    -0.14700
F1666       F  0.62633024  0.04566054  0.91432402    -0.12400
C1667       C  0.76669409  0.17536685  0.85980268     0.25700
C1668       C  0.76979904  0.20071415  0.86931281    -0.22500
C1669       C  0.74835177  0.21219832  0.88196098     0.20600
C1670       C  0.72429518  0.19906687  0.88424595     0.25600
C1671       C  0.72130612  0.17397677  0.87454760    -0.22400
C1672       C  0.74272460  0.16217286  0.86249982     0.20500
F1673       F  0.74000442  0.13838159  0.85212381    -0.12400
F1674       F  0.78684401  0.16320238  0.84778550    -0.14700
F1675       F  0.70350896  0.21118060  0.89528722    -0.14700
F1676       F  0.75027369  0.23649541  0.89128372    -0.12400
C1677       C  0.50597736  0.14646247  0.89029699     0.25700
C1678       C  0.52157369  0.13969946  0.86917180    -0.22500
C1679       C  0.50956469  0.12638112  0.84871875     0.20600
C1680       C  0.48295057  0.11932536  0.84976377     0.25600
C1681       C  0.46752785  0.12548745  0.87119101    -0.22400
C1682       C  0.47936041  0.13943844  0.89132971     0.20500
F1683       F  0.46539205  0.14583699  0.91251206    -0.12400
F1684       F  0.51663479  0.15902972  0.91052786    -0.14700
F1685       F  0.47226933  0.10674803  0.82955100    -0.14700
F1686       F  0.52356537  0.12004593  0.82753530    -0.12400
C1687       C  0.60985320  0.12094060  0.73285624     0.25700
C1688       C  0.63459121  0.12003357  0.72076535    -0.22500
C1689       C  0.65723438  0.12710602  0.73468292     0.20600
C1690       C  0.65509660  0.13463218  0.76028590     0.25600
C1691       C  0.63030898  0.13521715  0.77230432    -0.22400
C1692       C  0.60776161  0.12841936  0.75829598     0.20500
F1693       F  0.58346897  0.12945977  0.76914693    -0.12400
F1694       F  0.58742957  0.11539993  0.71983360    -0.14700
F1695       F  0.67731820  0.14035986  0.77355772    -0.14700
F1696       F  0.68148028  0.12616712  0.72372812    -0.12400
Zn1697     Zn  0.64124980  0.67010910  0.84590344     1.49700
Zn1698     Zn  0.60321107  0.62419215  0.85055926     1.49400
Zn1699     Zn  0.65167794  0.62865643  0.88998091     1.49100
Zn1700     Zn  0.60178807  0.66751532  0.89266989     1.49500
O1701       O  0.62459151  0.64736786  0.87028902    -1.82100
O1702       O  0.63978720  0.65704193  0.80934424    -0.72700
O1703       O  0.61166368  0.58879607  0.86069732    -0.72500
O1704       O  0.68829057  0.64539113  0.88450540    -0.72000
O1705       O  0.60979998  0.62620789  0.81284144    -0.72700
O1706       O  0.67849724  0.67551383  0.85581162    -0.72300
O1707       O  0.64970483  0.58977755  0.88187268    -0.72900
O1708       O  0.60856661  0.65782151  0.92925461    -0.72300
O1709       O  0.56502493  0.62879834  0.85718668    -0.73000
O1710       O  0.64337035  0.63188640  0.92795517    -0.72400
O1711       O  0.56264123  0.65973113  0.88622791    -0.72900
O1712       O  0.61060318  0.70558785  0.88812993    -0.72800
O1713       O  0.62711194  0.70564368  0.84873926    -0.72600
C1714       C  0.62561970  0.63947226  0.79934694     0.79200
C1715       C  0.63054823  0.57737215  0.87178042     0.79700
C1716       C  0.69465920  0.66502469  0.87105600     0.78600
C1717       C  0.62554875  0.64377014  0.94045681     0.79000
C1718       C  0.55153480  0.64309366  0.87185031     0.80200
C1719       C  0.61954699  0.71756014  0.86865106     0.79200
Zn1720     Zn  0.63918488  0.92095077  0.84029647     1.49700
Zn1721     Zn  0.60253643  0.87302481  0.84621364     1.49400
Zn1722     Zn  0.65129355  0.88028825  0.88484083     1.49100
Zn1723     Zn  0.59943124  0.91652931  0.88738017     1.49500
O1724       O  0.62328996  0.89761782  0.86506613    -1.82100
O1725       O  0.63654356  0.90774383  0.80397751    -0.72700
O1726       O  0.61396817  0.83831832  0.85547289    -0.72500
O1727       O  0.68716576  0.89729964  0.87786068    -0.72000
O1728       O  0.60866367  0.87525328  0.80857886    -0.72700
O1729       O  0.67720292  0.92621899  0.84830090    -0.72300
O1730       O  0.65009479  0.84094431  0.87930894    -0.72900
O1731       O  0.60845881  0.90945744  0.92393812    -0.72300
O1732       O  0.56399704  0.87400422  0.85464608    -0.73000
O1733       O  0.64478561  0.88561510  0.92245852    -0.72400
O1734       O  0.56112379  0.90522179  0.88326288    -0.72900
O1735       O  0.60433220  0.95473080  0.88164626    -0.72800
O1736       O  0.62500689  0.95670614  0.84420422    -0.72600
C1737       C  0.62346752  0.88907839  0.79455001     0.79200
C1738       C  0.63258875  0.82769541  0.86764675     0.79700
C1739       C  0.69368462  0.91631726  0.86364848     0.78600
C1740       C  0.62689899  0.89721629  0.93500639     0.79000
C1741       C  0.55043609  0.88732774  0.87017697     0.80200
C1742       C  0.61448938  0.96767678  0.86341461     0.79200
Zn1743     Zn  0.65336776  0.58136146  0.59966130     1.49700
Zn1744     Zn  0.61205323  0.58586418  0.64554869     1.49400
Zn1745     Zn  0.66296402  0.62376487  0.64191950     1.49100
Zn1746     Zn  0.61540728  0.62743248  0.60115139     1.49500
O1747       O  0.63591693  0.60476183  0.62262751    -1.82100
O1748       O  0.64020957  0.54629313  0.60485289    -0.72700
O1749       O  0.61846671  0.59739064  0.68204414    -0.72500
O1750       O  0.69973539  0.60649317  0.63782492    -0.72000
O1751       O  0.61843195  0.54698086  0.64178447    -0.72700
O1752       O  0.69138080  0.57799871  0.60738882    -0.72300
O1753       O  0.65357419  0.62284586  0.67926113    -0.72900
O1754       O  0.62514168  0.66306173  0.60856094    -0.72300
O1755       O  0.57335070  0.59500342  0.63817924    -0.73000
O1756       O  0.66084861  0.66245620  0.63326717    -0.72400
O1757       O  0.57709376  0.62485227  0.60812215    -0.72900
O1758       O  0.62060153  0.62200320  0.56370666    -0.72800
O1759       O  0.64899927  0.58982466  0.56285576    -0.72600
C1760       C  0.62899898  0.53476576  0.62324697     0.79200
C1761       C  0.63528475  0.61240965  0.69234949     0.79700
C1762       C  0.70715867  0.58803418  0.62329668     0.78600
C1763       C  0.64310593  0.67465658  0.62082498     0.79000
C1764       C  0.56297255  0.61157359  0.62320146     0.80200
C1765       C  0.63476259  0.60620603  0.55135677     0.79200
Zn1766     Zn  0.64982863  0.83121520  0.59460725     1.49700
Zn1767     Zn  0.61153468  0.87739326  0.59676696     1.49400
Zn1768     Zn  0.60987395  0.83551404  0.64108203     1.49100
Zn1769     Zn  0.66001850  0.87412462  0.63660829     1.49500
O1770       O  0.63278285  0.85477044  0.61766291    -1.82100
O1771       O  0.64627568  0.84084831  0.55757338    -0.72700
O1772       O  0.57323731  0.87347717  0.60436226    -0.72500
O1773       O  0.61731218  0.79694631  0.63804178    -0.72000
O1774       O  0.61720971  0.87266945  0.55879081    -0.72700
O1775       O  0.63715473  0.79559495  0.60017295    -0.72300
O1776       O  0.57088440  0.84386061  0.63470161    -0.72900
O1777       O  0.65218398  0.87205967  0.67415179    -0.72300
O1778       O  0.61990022  0.91333644  0.60616639    -0.73000
O1779       O  0.61706185  0.84687279  0.67724249    -0.72400
O1780       O  0.65624445  0.91285212  0.62989070    -0.72900
O1781       O  0.69721747  0.85842605  0.63129985    -0.72800
O1782       O  0.68761986  0.82802246  0.60309197    -0.72600
C1783       C  0.63205619  0.85747964  0.54629304     0.79200
C1784       C  0.55972342  0.86017198  0.61998589     0.79700
C1785       C  0.62751385  0.78432761  0.61961289     0.78600
C1786       C  0.63419644  0.86151959  0.68750251     0.79000
C1787       C  0.63753032  0.92503304  0.61889369     0.80200
C1788       C  0.70393413  0.83889035  0.61792234     0.79200
Zn1789     Zn  0.39250845  0.58896067  0.85586455     1.49700
Zn1790     Zn  0.38675906  0.63254987  0.89837620     1.49400
Zn1791     Zn  0.33979128  0.62475797  0.85755832     1.49100
Zn1792     Zn  0.35094459  0.58432231  0.90096828     1.49500
O1793       O  0.36761314  0.60785052  0.87763994    -1.82100
O1794       O  0.43039592  0.60100635  0.86275372    -0.72700
O1795       O  0.37444222  0.66747172  0.89026289    -0.72500
O1796       O  0.34937010  0.62219776  0.82052102    -0.72000
O1797       O  0.42532371  0.63219884  0.89125087    -0.72700
O1798       O  0.38532737  0.59802152  0.81898281    -0.72300
O1799       O  0.33965458  0.66371807  0.86455985    -0.72900
O1800       O  0.31295914  0.58021913  0.89451597    -0.72300
O1801       O  0.38167208  0.62756599  0.93600921    -0.73000
O1802       O  0.30370826  0.60649879  0.86242626    -0.72400
O1803       O  0.35548188  0.59355782  0.93717144    -0.72900
O1804       O  0.36383418  0.54927427  0.89599009    -0.72800
O1805       O  0.38820770  0.54974927  0.86080293    -0.72600
C1806       C  0.43997803  0.61889317  0.87670788     0.79200
C1807       C  0.35600081  0.67739490  0.87724098     0.79700
C1808       C  0.36787053  0.61165578  0.80788877     0.78600
C1809       C  0.29685132  0.58884705  0.87818117     0.79000
C1810       C  0.36827181  0.61114185  0.94846836     0.80200
C1811       C  0.37640000  0.53751407  0.87866929     0.79200
Zn1812     Zn  0.34048783  0.87818830  0.86470121     1.49700
Zn1813     Zn  0.38943708  0.83817631  0.86199695     1.49400
Zn1814     Zn  0.38724140  0.87968545  0.90673796     1.49100
Zn1815     Zn  0.34681617  0.83494054  0.90682025     1.49500
O1816       O  0.36612534  0.85792431  0.88468520    -1.82100
O1817       O  0.34937059  0.87564676  0.82753901    -0.72700
O1818       O  0.42830184  0.84649992  0.86885202    -0.72500
O1819       O  0.37936225  0.91624890  0.89891635    -0.72000
O1820       O  0.38340602  0.84900829  0.82539127    -0.72700
O1821       O  0.34567150  0.91638947  0.87165164    -0.72300
O1822       O  0.42563946  0.87640998  0.89891424    -0.72900
O1823       O  0.34992320  0.84296185  0.94425694    -0.72300
O1824       O  0.38134374  0.79970220  0.86510392    -0.73000
O1825       O  0.38126125  0.87282775  0.94432831    -0.72400
O1826       O  0.35696794  0.79878890  0.90033575    -0.72900
O1827       O  0.30941103  0.83394681  0.89717636    -0.72800
O1828       O  0.30243768  0.86424893  0.86811141    -0.72600
C1829       C  0.36702278  0.86411450  0.81468458     0.79200
C1830       C  0.43920611  0.86318424  0.88331475     0.79700
C1831       C  0.36327622  0.92817086  0.88457786     0.78600
C1832       C  0.36530035  0.85809939  0.95615989     0.79000
C1833       C  0.36838022  0.78726879  0.88203235     0.80200
C1834       C  0.29439665  0.84508297  0.88132832     0.79200
Zn1835     Zn  0.36343955  0.66792399  0.65470389     1.49700
Zn1836     Zn  0.39936744  0.62060656  0.64800393     1.49400
Zn1837     Zn  0.35128398  0.62910277  0.60902897     1.49100
Zn1838     Zn  0.40282921  0.66597364  0.60752960     1.49500
O1839       O  0.37921313  0.64572897  0.62920285    -1.82100
O1840       O  0.36511864  0.65371149  0.69043974    -0.72700
O1841       O  0.39007722  0.58587385  0.63632224    -0.72500
O1842       O  0.31556764  0.64755152  0.61543680    -0.72000
O1843       O  0.39210867  0.62071876  0.68566324    -0.72700
O1844       O  0.32597049  0.67485280  0.64626747    -0.72300
O1845       O  0.35190792  0.58967558  0.61555022    -0.72900
O1846       O  0.39420580  0.65939524  0.57027230    -0.72300
O1847       O  0.43770663  0.62422311  0.64217631    -0.73000
O1848       O  0.35903544  0.63404694  0.57117530    -0.72400
O1849       O  0.44166668  0.65532817  0.61331357    -0.72900
O1850       O  0.39557366  0.70415319  0.61433324    -0.72800
O1851       O  0.37844211  0.70307385  0.65333440    -0.72600
C1852       C  0.37757549  0.63465713  0.69974602     0.79200
C1853       C  0.37039460  0.57595963  0.62515584     0.79700
C1854       C  0.30944399  0.66624824  0.63023539     0.78600
C1855       C  0.37641770  0.64656055  0.55865881     0.79000
C1856       C  0.45189981  0.63797499  0.62757184     0.80200
C1857       C  0.38612023  0.71564342  0.63386198     0.79200
Zn1858     Zn  0.35924909  0.91787404  0.66041399     1.49700
Zn1859     Zn  0.39925134  0.91365328  0.61361394     1.49400
Zn1860     Zn  0.39602773  0.87026998  0.65564716     1.49100
Zn1861     Zn  0.34793316  0.87692592  0.61582823     1.49500
O1862       O  0.37546114  0.89453935  0.63601322    -1.82100
O1863       O  0.37176895  0.95410707  0.65520777    -0.72700
O1864       O  0.43772741  0.90289368  0.61869129    -0.72500
O1865       O  0.39077762  0.87345040  0.69340340    -0.72000
O1866       O  0.39271309  0.95202086  0.61789314    -0.72700
O1867       O  0.36262985  0.90584249  0.69705693    -0.72300
O1868       O  0.43434278  0.87139849  0.64700561    -0.72900
O1869       O  0.34959899  0.83779934  0.62163808    -0.72300
O1870       O  0.39123113  0.90560202  0.57703109    -0.73000
O1871       O  0.38469005  0.83525710  0.64703371    -0.72400
O1872       O  0.35507969  0.88157009  0.57815168    -0.72900
O1873       O  0.31173150  0.89353230  0.62240409    -0.72800
O1874       O  0.32115295  0.92156487  0.65293987    -0.72600
C1875       C  0.38179488  0.96498576  0.63566107     0.79200
C1876       C  0.44820796  0.88484278  0.63178934     0.79700
C1877       C  0.37607286  0.88772687  0.70698647     0.78600
C1878       C  0.36666630  0.82468746  0.63398650     0.79000
C1879       C  0.37318697  0.89303251  0.56569579     0.80200
C1880       C  0.30488282  0.91185959  0.63728750     0.79200
Zn1881     Zn  0.89843230  0.00146911  0.65090668     1.49700
Zn1882     Zn  0.86438719  0.54857468  0.65441107     1.49400
Zn1883     Zn  0.90640683  0.54400431  0.60784099     1.49100
Zn1884     Zn  0.85505548  0.50721538  0.60941179     1.49500
O1885       O  0.88153955  0.52552251  0.63013452    -1.82100
O1886       O  0.89410496  0.50396980  0.68802131    -0.72700
O1887       O  0.87534035  0.58486673  0.64720721    -0.72500
O1888       O  0.94464032  0.53251453  0.61434340    -0.72000
O1889       O  0.86874530  0.53821284  0.69195534    -0.72700
O1890       O  0.93662475  0.00443658  0.64516180    -0.72300
O1891       O  0.90096150  0.58241377  0.61281790    -0.72900
O1892       O  0.86219786  0.51311589  0.57166448    -0.72300
O1893       O  0.82584019  0.55003078  0.64731998    -0.73000
O1894       O  0.89828661  0.53715711  0.57042457    -0.72400
O1895       O  0.81805025  0.52212809  0.61614691    -0.72900
O1896       O  0.85353262  0.96750218  0.61774277    -0.72800
O1897       O  0.88985338  0.96651855  0.64119426    -0.72600
C1898       C  0.88081611  0.51914733  0.70188938     0.79200
C1899       C  0.88782360  0.59561617  0.62895658     0.79700
C1900       C  0.95420352  0.51586946  0.62976252     0.78600
C1901       C  0.87988265  0.52504934  0.55899829     0.79000
C1902       C  0.81014812  0.53966848  0.63147666     0.80200
C1903       C  0.87171263  0.95501110  0.62922882     0.79200
Zn1904     Zn  0.86208165  0.79960124  0.59651541     1.49700
Zn1905     Zn  0.90052024  0.79323154  0.64331953     1.49400
Zn1906     Zn  0.85040077  0.75519892  0.63483797     1.49100
Zn1907     Zn  0.90068464  0.75315564  0.59741554     1.49500
O1908       O  0.87873878  0.77492038  0.61853717    -1.82100
O1909       O  0.87714998  0.83417535  0.60056720    -0.72700
O1910       O  0.89016949  0.78170292  0.67895390    -0.72500
O1911       O  0.81363138  0.77123900  0.62923825    -0.72000
O1912       O  0.89340279  0.83169038  0.63981835    -0.72700
O1913       O  0.82479509  0.80537231  0.60617953    -0.72300
O1914       O  0.85611567  0.75573405  0.67256010    -0.72900
O1915       O  0.89082362  0.71654287  0.60302576    -0.72300
O1916       O  0.93986329  0.78448569  0.63890913    -0.73000
O1917       O  0.85383082  0.71726543  0.62591364    -0.72400
O1918       O  0.93852688  0.75508560  0.60808063    -0.72900
O1919       O  0.89657666  0.76108928  0.55986552    -0.72800
O1920       O  0.86390618  0.78957074  0.55990298    -0.72600
C1921       C  0.88467504  0.84488753  0.62104518     0.79200
C1922       C  0.87239564  0.76657901  0.68753016     0.79700
C1923       C  0.80781144  0.79273059  0.61876911     0.78600
C1924       C  0.87229692  0.70497502  0.61468926     0.79000
C1925       C  0.95124131  0.76786549  0.62471436     0.80200
C1926       C  0.87978634  0.77490996  0.54810343     0.79200
Zn1927     Zn  0.85002460  0.71162762  0.84147072     1.49700
Zn1928     Zn  0.83898354  0.75078212  0.88769358     1.49400
Zn1929     Zn  0.89102621  0.71466954  0.88824467     1.49100
Zn1930     Zn  0.88683176  0.75928535  0.84827529     1.49500
O1931       O  0.86651487  0.73406245  0.86680381    -1.82100
O1932       O  0.81194330  0.70690902  0.84991390    -0.72700
O1933       O  0.84670485  0.74473658  0.92522145    -0.72500
O1934       O  0.88539657  0.67672221  0.88163903    -0.72000
O1935       O  0.80288680  0.73370217  0.88174563    -0.72700
O1936       O  0.86278986  0.67545269  0.84533951    -0.72300
O1937       O  0.88313299  0.72095192  0.92555708    -0.72900
O1938       O  0.92538189  0.75758999  0.85535160    -0.72300
O1939       O  0.83952361  0.79007148  0.88179487    -0.73000
O1940       O  0.92952240  0.72501742  0.88229299    -0.72400
O1941       O  0.87508311  0.79400892  0.85724453    -0.72900
O1942       O  0.88197130  0.75670013  0.81090350    -0.72800
O1943       O  0.85450805  0.72425351  0.80474071    -0.72600
C1944       C  0.79611842  0.71554429  0.86665833     0.79200
C1945       C  0.86476791  0.73278110  0.93725819     0.79700
C1946       C  0.87407578  0.66408518  0.86386799     0.78600
C1947       C  0.93973839  0.74308958  0.86901575     0.79000
C1948       C  0.85630928  0.80396707  0.86976800     0.80200
C1949       C  0.86852807  0.74267416  0.79599211     0.79200
Zn1950     Zn  0.84004989  0.50295742  0.85893496     1.49700
Zn1951     Zn  0.84728806  0.96158745  0.90262414     1.49400
Zn1952     Zn  0.88860754  0.96555277  0.85739778     1.49100
Zn1953     Zn  0.88620044  0.50663786  0.90026101     1.49500
O1954       O  0.86506731  0.98491744  0.87976161    -1.82100
O1955       O  0.80198888  0.98737008  0.86294400    -0.72700
O1956       O  0.85833316  0.92553271  0.89732798    -0.72500
O1957       O  0.88354444  0.97717666  0.82052130    -0.72000
O1958       O  0.80975468  0.95913855  0.89369124    -0.72700
O1959       O  0.84893429  0.00312007  0.82293229    -0.72300
O1960       O  0.87979052  0.92717267  0.86045786    -0.72900
O1961       O  0.92463289  0.50243247  0.89552105    -0.72300
O1962       O  0.85055559  0.97092890  0.93945387    -0.73000
O1963       O  0.92712046  0.97333667  0.86647058    -0.72400
O1964       O  0.87697937  0.00478818  0.93831606    -0.72900
O1965       O  0.87895166  0.54236219  0.89026477    -0.72800
O1966       O  0.84245398  0.54152208  0.86701805    -0.72600
C1967       C  0.79435711  0.96879720  0.87725040     0.79200
C1968       C  0.86809984  0.91433994  0.87799417     0.79700
C1969       C  0.86709212  0.99242599  0.81000012     0.78600
C1970       C  0.93759177  0.98947783  0.88185268     0.79000
C1971       C  0.86302972  0.98879535  0.95077968     0.80200
C1972       C  0.86125925  0.55396094  0.87764666     0.79200
Zn1973     Zn  0.10066716  0.99939177  0.85308181     1.49700
Zn1974     Zn  0.14236489  0.54457532  0.84970654     1.49400
Zn1975     Zn  0.10060635  0.54300708  0.89632495     1.49100
Zn1976     Zn  0.15081838  0.50370034  0.89496698     1.49500
O1977       O  0.12443402  0.52293279  0.87453490    -1.82100
O1978       O  0.10811186  0.50333089  0.81643530    -0.72700
O1979       O  0.13214295  0.58105339  0.85407594    -0.72500
O1980       O  0.06143816  0.53208996  0.89136087    -0.72000
O1981       O  0.13903866  0.53302732  0.81311641    -0.72700
O1982       O  0.06296862  0.00151494  0.86143551    -0.72300
O1983       O  0.10789783  0.58136068  0.88950307    -0.72900
O1984       O  0.14255560  0.50822337  0.93302228    -0.72300
O1985       O  0.18032857  0.54613126  0.85709901    -0.73000
O1986       O  0.10902501  0.53572075  0.93362174    -0.72400
O1987       O  0.18807983  0.51931073  0.88919342    -0.72900
O1988       O  0.14700154  0.96502333  0.88440452    -0.72800
O1989       O  0.11085671  0.96417050  0.86052449    -0.72600
C1990       C  0.12429715  0.51608794  0.80298596     0.79200
C1991       C  0.12077978  0.59320317  0.87201069     0.79700
C1992       C  0.05123065  0.51436586  0.87754235     0.78600
C1993       C  0.12565980  0.52157938  0.94532733     0.79000
C1994       C  0.19594873  0.53645897  0.87332159     0.80200
C1995       C  0.12937719  0.95262326  0.87189539     0.79200
Zn1996     Zn  0.15353652  0.75523179  0.85642318     1.49700
Zn1997     Zn  0.13774079  0.79861203  0.89630262     1.49400
Zn1998     Zn  0.10166760  0.79017466  0.84905919     1.49100
Zn1999     Zn  0.10503653  0.74917464  0.89524138     1.49500
O2000       O  0.12436352  0.77259244  0.87364217    -1.82100
O2001       O  0.18813039  0.77490005  0.86312936    -0.72700
O2002       O  0.11794899  0.83078212  0.89327590    -0.72500
O2003       O  0.11073150  0.77832186  0.81273921    -0.72000
O2004       O  0.17419923  0.80803586  0.88640106    -0.72700
O2005       O  0.14767199  0.75613289  0.81831018    -0.72300
O2006       O  0.10869853  0.82935315  0.85210475    -0.72900
O2007       O  0.06650753  0.75155471  0.88784712    -0.72300
O2008       O  0.13703576  0.78900804  0.93325831    -0.73000
O2009       O  0.06310316  0.78020911  0.85646388    -0.72400
O2010       O  0.11165667  0.75425532  0.93288481    -0.72900
O2011       O  0.11608197  0.71374351  0.88775887    -0.72800
O2012       O  0.15328344  0.71654325  0.86529344    -0.72600
C2013       C  0.19218318  0.79665660  0.87393428     0.79200
C2014       C  0.11438448  0.84219193  0.87220752     0.79700
C2015       C  0.12987129  0.76518425  0.80372092     0.78600
C2016       C  0.05253152  0.76418801  0.87203768     0.79000
C2017       C  0.12510729  0.77097285  0.94487502     0.80200
C2018       C  0.13550389  0.70324736  0.87662891     0.79200
Zn2019     Zn  0.11519762  0.75571810  0.60356430     1.49700
Zn2020     Zn  0.15185978  0.70777501  0.60304573     1.49400
Zn2021     Zn  0.16294368  0.75168040  0.64423768     1.49100
Zn2022     Zn  0.11053630  0.71526752  0.64902761     1.49500
O2023       O  0.13517738  0.73269503  0.62543249    -1.82100
O2024       O  0.12006580  0.74876098  0.56610911    -0.72700
O2025       O  0.19072120  0.70716377  0.60775025    -0.72500
O2026       O  0.16090349  0.79031844  0.63547726    -0.72000
O2027       O  0.14391218  0.71297746  0.56561812    -0.72700
O2028       O  0.12645114  0.79124708  0.60926758    -0.72300
O2029       O  0.19981719  0.73521301  0.63830644    -0.72900
O2030       O  0.11786905  0.72766277  0.68514631    -0.72300
O2031       O  0.14255780  0.67248802  0.61378737    -0.73000
O2032       O  0.15494375  0.75041507  0.68224045    -0.72400
O2033       O  0.11606841  0.67595293  0.64751889    -0.72900
O2034       O  0.07205840  0.72551019  0.64192674    -0.72800
O2035       O  0.07677597  0.75580996  0.61231496    -0.72600
C2036       C  0.13168014  0.73086444  0.55401565     0.79200
C2037       C  0.20711054  0.71736892  0.62299716     0.79700
C2038       C  0.14410922  0.80268886  0.62203549     0.78600
C2039       C  0.13597919  0.74120534  0.69541120     0.79000
C2040       C  0.12990847  0.66240354  0.63217435     0.80200
C2041       C  0.06235454  0.74308961  0.62767626     0.79200
Zn2042     Zn  0.16425250  0.50037908  0.64676170     1.49700
Zn2043     Zn  0.15070105  0.95931550  0.60217968     1.49400
Zn2044     Zn  0.10997491  0.96249807  0.64744406     1.49100
Zn2045     Zn  0.11724113  0.50587316  0.60753616     1.49500
O2046       O  0.13379352  0.98222693  0.62560943    -1.82100
O2047       O  0.19729563  0.98298579  0.64121453    -0.72700
O2048       O  0.13672096  0.92412331  0.60469166    -0.72500
O2049       O  0.11597285  0.97298137  0.68421685    -0.72000
O2050       O  0.18814897  0.95463310  0.61096499    -0.72700
O2051       O  0.15102554  0.99845727  0.68208077    -0.72300
O2052       O  0.11741969  0.92395460  0.64281686    -0.72900
O2053       O  0.07949068  0.50143007  0.61314169    -0.72300
O2054       O  0.14811165  0.97051316  0.56628893    -0.73000
O2055       O  0.07146698  0.97172600  0.63962671    -0.72400
O2056       O  0.12167624  0.00426573  0.56811364    -0.72900
O2057       O  0.12419924  0.54122731  0.61907862    -0.72800
O2058       O  0.16195434  0.53966372  0.64045662    -0.72600
C2059       C  0.20417480  0.96422987  0.62688160     0.79200
C2060       C  0.12733361  0.91209124  0.62371948     0.79700
C2061       C  0.13270524  0.98780191  0.69490751     0.78600
C2062       C  0.06144181  0.98869134  0.62485066     0.79000
C2063       C  0.13561854  0.98855088  0.55538179     0.80200
C2064       C  0.14244879  0.55232867  0.63138269     0.79200
Zn2065     Zn  0.34718889  0.58289857  0.10524058     1.49700
Zn2066     Zn  0.38423238  0.63032184  0.10911249     1.49400
Zn2067     Zn  0.33515270  0.62429559  0.14734687     1.49100
Zn2068     Zn  0.38679562  0.58719935  0.15153846     1.49500
O2069       O  0.36340960  0.60634478  0.12878066    -1.82100
O2070       O  0.35322922  0.59223867  0.06913631    -0.72700
O2071       O  0.37278266  0.66549438  0.11669921    -0.72500
O2072       O  0.29902655  0.60630504  0.14254676    -0.72000
O2073       O  0.38038005  0.62551226  0.07138651    -0.72700
O2074       O  0.30885903  0.57983171  0.11089591    -0.72300
O2075       O  0.33534461  0.66272281  0.13866981    -0.72900
O2076       O  0.37987516  0.59954771  0.18749511    -0.72300
O2077       O  0.42232577  0.62872819  0.11809246    -0.73000
O2078       O  0.34422687  0.62407948  0.18458211    -0.72400
O2079       O  0.42598214  0.59545524  0.14448167    -0.72900
O2080       O  0.37868186  0.54854360  0.14864366    -0.72800
O2081       O  0.35854338  0.54725848  0.11112836    -0.72600
C2082       C  0.36689126  0.60962146  0.05838891     0.79200
C2083       C  0.35336672  0.67600986  0.12778990     0.79700
C2084       C  0.29236069  0.58865264  0.12679581     0.78600
C2085       C  0.36280150  0.61432164  0.19770954     0.79000
C2086       C  0.43635064  0.61393240  0.13179328     0.80200
C2087       C  0.36780752  0.53586786  0.13055514     0.79200
Zn2088     Zn  0.38929744  0.87871905  0.15470318     1.49700
Zn2089     Zn  0.33964891  0.87291912  0.11655495     1.49400
Zn2090     Zn  0.39017559  0.83499195  0.11442163     1.49100
Zn2091     Zn  0.34969106  0.83344526  0.16204006     1.49500
O2092       O  0.36703250  0.85500602  0.13652917    -1.82100
O2093       O  0.37833399  0.91366300  0.14670472    -0.72700
O2094       O  0.34774650  0.86950142  0.07889255    -0.72500
O2095       O  0.42955052  0.84383687  0.11862400    -0.72000
O2096       O  0.34087029  0.91196325  0.12486733    -0.72700
O2097       O  0.42712260  0.87673025  0.14515702    -0.72300
O2098       O  0.38173674  0.84261412  0.07767723    -0.72900
O2099       O  0.36079328  0.79685679  0.15764463    -0.72300
O2100       O  0.30354922  0.85453621  0.12074832    -0.73000
O2101       O  0.38185603  0.79749154  0.12041703    -0.72400
O2102       O  0.31098221  0.82973081  0.15449121    -0.72900
O2103       O  0.35559476  0.84616478  0.19853247    -0.72800
O2104       O  0.38615648  0.87599929  0.19240291    -0.72600
C2105       C  0.35914521  0.92483674  0.13598431     0.79200
C2106       C  0.36472726  0.85657156  0.06640754     0.79700
C2107       C  0.44062893  0.86219656  0.13079038     0.78600
C2108       C  0.37015761  0.78523176  0.13828025     0.79000
C2109       C  0.29586739  0.83737005  0.13665242     0.80200
C2110       C  0.37132594  0.86321941  0.20726764     0.79200
Zn2111     Zn  0.35797547  0.67079733  0.35151491     1.49700
Zn2112     Zn  0.34634756  0.63081495  0.39747737     1.49400
Zn2113     Zn  0.39253351  0.62250938  0.35602978     1.49100
Zn2114     Zn  0.39935268  0.66621248  0.39716066     1.49500
O2115       O  0.37384449  0.64749775  0.37616744    -1.82100
O2116       O  0.32025287  0.67481398  0.35951480    -0.72700
O2117       O  0.34671410  0.59122198  0.39126723    -0.72500
O2118       O  0.38549641  0.62503715  0.31890489    -0.72000
O2119       O  0.30999994  0.64848721  0.39140874    -0.72700
O2120       O  0.36069257  0.65962083  0.31467194    -0.72300
O2121       O  0.38146307  0.58786682  0.36560577    -0.72900
O2122       O  0.43750416  0.65533469  0.38886462    -0.72300
O2123       O  0.35541594  0.63597420  0.43505469    -0.73000
O2124       O  0.43114463  0.62411399  0.36079584    -0.72400
O2125       O  0.39230479  0.65894247  0.43468119    -0.72900
O2126       O  0.39364787  0.70463170  0.39187774    -0.72800
O2127       O  0.37097639  0.70651248  0.35574877    -0.72600
C2128       C  0.30363377  0.66614444  0.37546700     0.79200
C2129       C  0.36324096  0.57757748  0.37865077     0.79700
C2130       C  0.37246611  0.64038132  0.30497087     0.78600
C2131       C  0.44655469  0.63776608  0.37418909     0.79000
C2132       C  0.37415599  0.64721072  0.44692690     0.80200
C2133       C  0.38211066  0.71760947  0.37444848     0.79200
Zn2134     Zn  0.35735224  0.92078252  0.40748176     1.49700
Zn2135     Zn  0.34740086  0.87805054  0.36646184     1.49400
Zn2136     Zn  0.39744131  0.91604798  0.36095754     1.49100
Zn2137     Zn  0.39551293  0.87475303  0.40566561     1.49500
O2138       O  0.37470796  0.89721260  0.38462540    -1.82100
O2139       O  0.32076666  0.92775777  0.39563584    -0.72700
O2140       O  0.35581151  0.87860728  0.32935372    -0.72500
O2141       O  0.39004366  0.95442572  0.36609129    -0.72000
O2142       O  0.31132014  0.89561202  0.36926706    -0.72700
O2143       O  0.37309277  0.95542951  0.40516675    -0.72300
O2144       O  0.38910112  0.90576407  0.32416286    -0.72900
O2145       O  0.43346899  0.87669733  0.39695477    -0.72300
O2146       O  0.34879496  0.83983340  0.37538267    -0.73000
O2147       O  0.43627844  0.90624877  0.36656783    -0.72400
O2148       O  0.38557016  0.83892238  0.39832202    -0.72900
O2149       O  0.39076163  0.88091827  0.44319836    -0.72800
O2150       O  0.35795234  0.90914866  0.44426288    -0.72600
C2151       C  0.30502986  0.91657443  0.38043507     0.79200
C2152       C  0.37225840  0.89003408  0.31496267     0.79700
C2153       C  0.38083034  0.96696362  0.38512929     0.78600
C2154       C  0.44708460  0.88939460  0.38096461     0.79000
C2155       C  0.36715799  0.82738213  0.38660543     0.80200
C2156       C  0.37401566  0.89417107  0.45555270     0.79200
Zn2157     Zn  0.59892265  0.62065718  0.10078679     1.49700
Zn2158     Zn  0.59902024  0.66149504  0.14663248     1.49400
Zn2159     Zn  0.64839375  0.62216952  0.13990486     1.49100
Zn2160     Zn  0.63792171  0.66558089  0.09941626     1.49500
O2161       O  0.62080431  0.64206437  0.12236343    -1.82100
O2162       O  0.56103040  0.62222084  0.11138008    -0.72700
O2163       O  0.60911307  0.65180837  0.18322589    -0.72500
O2164       O  0.64574367  0.58399159  0.12982044    -0.72000
O2165       O  0.55988944  0.65165805  0.14221108    -0.72700
O2166       O  0.60918498  0.58450839  0.10640749    -0.72300
O2167       O  0.64029998  0.62225704  0.17750367    -0.72900
O2168       O  0.67461879  0.67185304  0.11028145    -0.72300
O2169       O  0.60480461  0.70019684  0.14082795    -0.73000
O2170       O  0.68529685  0.63969260  0.13615841    -0.72400
O2171       O  0.62214274  0.70011252  0.10177160    -0.72900
O2172       O  0.63736858  0.65459814  0.06272232    -0.72800
O2173       O  0.60308733  0.62809767  0.06276450    -0.72600
C2174       C  0.54840669  0.63503298  0.12805089     0.79200
C2175       C  0.62504271  0.63500293  0.19206493     0.79700
C2176       C  0.62747004  0.57226570  0.11762436     0.78600
C2177       C  0.69115447  0.66073613  0.12466689     0.79000
C2178       C  0.61305685  0.71207588  0.12096714     0.80200
C2179       C  0.62075743  0.64077559  0.05081621     0.79200
Zn2180     Zn  0.65160278  0.87099755  0.13466239     1.49700
Zn2181     Zn  0.60264929  0.91044084  0.13996922     1.49400
Zn2182     Zn  0.64402529  0.91576351  0.09478443     1.49100
Zn2183     Zn  0.60422665  0.87051583  0.09375525     1.49500
O2184       O  0.62537980  0.89165639  0.11621294    -1.82100
O2185       O  0.64289754  0.87142734  0.17180840    -0.72700
O2186       O  0.60921415  0.94914442  0.13614336    -0.72500
O2187       O  0.68069169  0.92025638  0.10724478    -0.72000
O2188       O  0.61053900  0.89969253  0.17639790    -0.72700
O2189       O  0.68891877  0.88690459  0.13255823    -0.72300
O2190       O  0.62959465  0.95081208  0.09850507    -0.72900
O2191       O  0.61025057  0.87872337  0.05653927    -0.72300
O2192       O  0.56390910  0.90091935  0.13397786    -0.73000
O2193       O  0.64308286  0.90696434  0.05746710    -0.72400
O2194       O  0.56580102  0.87326828  0.10184441    -0.72900
O2195       O  0.61256737  0.83378104  0.10024701    -0.72800
O2196       O  0.64762667  0.83298673  0.12578799    -0.72600
C2197       C  0.62659532  0.88341121  0.18584067     0.79200
C2198       C  0.61924176  0.96185594  0.11762655     0.79700
C2199       C  0.69596999  0.90813247  0.12218643     0.78600
C2200       C  0.62700187  0.89292646  0.04509135     0.79000
C2201       C  0.55259493  0.88529187  0.11865156     0.80200
C2202       C  0.62951651  0.82146436  0.11326138     0.79200
Zn2203     Zn  0.60650904  0.58661031  0.34681093     1.49700
Zn2204     Zn  0.65877692  0.62339290  0.35084773     1.49400
Zn2205     Zn  0.61167218  0.62781708  0.39176121     1.49100
Zn2206     Zn  0.64740395  0.58069336  0.39256239     1.49500
O2207       O  0.63105066  0.60480574  0.36975251    -1.82100
O2208       O  0.61375608  0.59793818  0.31027684    -0.72700
O2209       O  0.65753338  0.66184134  0.36008702    -0.72500
O2210       O  0.57340000  0.62548136  0.38553299    -0.72000
O2211       O  0.64921235  0.62319245  0.31323408    -0.72700
O2212       O  0.56793697  0.59652469  0.35498592    -0.72300
O2213       O  0.62143724  0.66340895  0.38412638    -0.72900
O2214       O  0.64204334  0.58739218  0.42932757    -0.72300
O2215       O  0.69556547  0.60591639  0.35623369    -0.73000
O2216       O  0.61781100  0.62256675  0.42919746    -0.72400
O2217       O  0.68548036  0.57863864  0.38729397    -0.72900
O2218       O  0.63639178  0.54573959  0.38491971    -0.72800
O2219       O  0.61242695  0.54749978  0.34961763    -0.72600
C2220       C  0.63091297  0.61276408  0.30013751     0.79200
C2221       C  0.63989199  0.67457768  0.37211963     0.79700
C2222       C  0.55841659  0.61290740  0.37071425     0.78600
C2223       C  0.63026815  0.60520494  0.44122195     0.79000
C2224       C  0.70219641  0.58823346  0.37208624     0.80200
C2225       C  0.62467993  0.53461041  0.36669493     0.79200
Zn2226     Zn  0.61025187  0.87958202  0.34703859     1.49700
Zn2227     Zn  0.65898045  0.87216384  0.38567874     1.49400
Zn2228     Zn  0.60749096  0.83537901  0.38799487     1.49100
Zn2229     Zn  0.64684431  0.83265263  0.34026155     1.49500
O2230       O  0.63104566  0.85501799  0.36570547    -1.82100
O2231       O  0.62260302  0.91433565  0.35451916    -0.72700
O2232       O  0.65138775  0.86811893  0.42347911    -0.72500
O2233       O  0.56871771  0.84516131  0.38274631    -0.72000
O2234       O  0.65879121  0.91118645  0.37825955    -0.72700
O2235       O  0.57245894  0.87836168  0.35649621    -0.72300
O2236       O  0.61546734  0.84357151  0.42483710    -0.72900
O2237       O  0.63544282  0.79641750  0.34542008    -0.72300
O2238       O  0.69469631  0.85437008  0.37954578    -0.73000
O2239       O  0.61444602  0.79721664  0.38259868    -0.72400
O2240       O  0.68520744  0.82918112  0.34670983    -0.72900
O2241       O  0.64090264  0.84405717  0.30365390    -0.72800
O2242       O  0.61324190  0.87634157  0.30930173    -0.72600
C2243       C  0.64176495  0.92464664  0.36615043     0.79200
C2244       C  0.63339359  0.85651365  0.43601274     0.79700
C2245       C  0.55837530  0.86383362  0.37043659     0.78600
C2246       C  0.62562966  0.78478934  0.36457179     0.79000
C2247       C  0.70141338  0.83714256  0.36339290     0.80200
C2248       C  0.62665706  0.86205243  0.29460405     0.79200
Zn2249     Zn  0.89472197  0.99573345  0.35968760     1.49700
Zn2250     Zn  0.85912337  0.54394635  0.35150267     1.49400
Zn2251     Zn  0.84832628  0.50545371  0.39845204     1.49100
Zn2252     Zn  0.90055843  0.54217628  0.39729260     1.49500
O2253       O  0.87556327  0.52200256  0.37688628    -1.82100
O2254       O  0.88639362  0.49653910  0.32042420    -0.72700
O2255       O  0.82101583  0.54671645  0.35802555    -0.72500
O2256       O  0.84593318  0.96617535  0.39110272    -0.72000
O2257       O  0.86263679  0.53167980  0.31528787    -0.72700
O2258       O  0.88436880  0.96128465  0.37106483    -0.72300
O2259       O  0.81150959  0.52157976  0.39102044    -0.72900
O2260       O  0.89387910  0.53560212  0.43485820    -0.72300
O2261       O  0.87076101  0.58015253  0.35520712    -0.73000
O2262       O  0.85725787  0.51214494  0.43602502    -0.72400
O2263       O  0.89380796  0.58053727  0.39131297    -0.72900
O2264       O  0.93907848  0.53181722  0.38937038    -0.72800
O2265       O  0.93284768  0.99907382  0.36554380    -0.72600
C2266       C  0.87343392  0.51165051  0.30612121     0.79200
C2267       C  0.80455172  0.53806241  0.37408986     0.79700
C2268       C  0.86400874  0.95195620  0.38159724     0.78600
C2269       C  0.87594420  0.52395409  0.44746983     0.79000
C2270       C  0.88193411  0.59229811  0.37325999     0.80200
C2271       C  0.94863137  0.51412774  0.37511534     0.79200
Zn2272     Zn  0.89436748  0.74813825  0.34866706     1.49700
Zn2273     Zn  0.85575820  0.79458473  0.34362245     1.49400
Zn2274     Zn  0.84769407  0.75442936  0.39009890     1.49100
Zn2275     Zn  0.89814756  0.79254034  0.38881926     1.49500
O2276       O  0.87372709  0.77232431  0.36811945    -1.82100
O2277       O  0.88844321  0.75108178  0.31102444    -0.72700
O2278       O  0.81728856  0.79455867  0.35052328    -0.72500
O2279       O  0.85034094  0.71505731  0.38514900    -0.72000
O2280       O  0.86091615  0.78376831  0.30653901    -0.72700
O2281       O  0.88378624  0.71307407  0.35774225    -0.72300
O2282       O  0.81063011  0.76970120  0.38458709    -0.72900
O2283       O  0.89163367  0.78575491  0.42580412    -0.72300
O2284       O  0.86434906  0.83175923  0.35020380    -0.73000
O2285       O  0.85624773  0.76065544  0.42714131    -0.72400
O2286       O  0.89054676  0.83033467  0.38406189    -0.72900
O2287       O  0.93669457  0.78272001  0.38323478    -0.72800
O2288       O  0.93276464  0.74948926  0.35701608    -0.72600
C2289       C  0.87422740  0.76535297  0.29692970     0.79200
C2290       C  0.80230723  0.78561717  0.36781151     0.79700
C2291       C  0.86683397  0.70214684  0.37185232     0.78600
C2292       C  0.87443684  0.77319198  0.43833221     0.79000
C2293       C  0.87636454  0.84300420  0.36839596     0.80200
C2294       C  0.94682732  0.76385341  0.37113648     0.79200
Zn2295     Zn  0.84532692  0.70644226  0.09698462     1.49700
Zn2296     Zn  0.83603530  0.74967937  0.13903433     1.49400
Zn2297     Zn  0.88634994  0.71129325  0.14285180     1.49100
Zn2298     Zn  0.88356304  0.75282645  0.09794381     1.49500
O2299       O  0.86293352  0.73029351  0.11963005    -1.82100
O2300       O  0.80788250  0.70225224  0.10704067    -0.72700
O2301       O  0.84569520  0.74965493  0.17627449    -0.72500
O2302       O  0.87778135  0.67248506  0.14032743    -0.72000
O2303       O  0.79910513  0.73231132  0.13597161    -0.72700
O2304       O  0.85795549  0.67097952  0.10259408    -0.72300
O2305       O  0.88028131  0.72371007  0.17925868    -0.72900
O2306       O  0.92201182  0.74972046  0.10529855    -0.72300
O2307       O  0.83870864  0.78823817  0.13096380    -0.73000
O2308       O  0.92547276  0.71958061  0.13506234    -0.72400
O2309       O  0.87453610  0.78892128  0.10632292    -0.72900
O2310       O  0.87814550  0.74657043  0.06013929    -0.72800
O2311       O  0.84853757  0.71516380  0.05943223    -0.72600
C2312       C  0.79226374  0.71251690  0.12297310     0.79200
C2313       C  0.86386891  0.73924055  0.18941029     0.79700
C2314       C  0.86699297  0.65970146  0.12224100     0.78600
C2315       C  0.93610807  0.73622622  0.12021547     0.79000
C2316       C  0.85698730  0.80048931  0.11927158     0.80200
C2317       C  0.86331639  0.73118786  0.04781884     0.79200
Zn2318     Zn  0.85032793  0.95626367  0.10747543     1.49700
Zn2319     Zn  0.83441107  0.49766060  0.14806795     1.49400
Zn2320     Zn  0.88991331  0.96012059  0.15246819     1.49100
Zn2321     Zn  0.88277176  0.50439781  0.10914052     1.49500
O2322       O  0.86605596  0.97991038  0.13081004    -1.82100
O2323       O  0.81359569  0.94880746  0.11756931    -0.72700
O2324       O  0.84901904  0.99643345  0.18680488    -0.72500
O2325       O  0.88232097  0.92135742  0.14855817    -0.72000
O2326       O  0.80232794  0.97849675  0.14601524    -0.72700
O2327       O  0.86708318  0.92216146  0.10887187    -0.72300
O2328       O  0.88454666  0.97151455  0.18891576    -0.72900
O2329       O  0.92112927  0.50339612  0.11648444    -0.72300
O2330       O  0.83428258  0.53651829  0.13954587    -0.73000
O2331       O  0.92835890  0.96844637  0.14346150    -0.72400
O2332       O  0.87086639  0.53968083  0.11617184    -0.72900
O2333       O  0.87742356  0.00256231  0.07374990    -0.72800
O2334       O  0.85116005  0.96859897  0.07153898    -0.72600
C2335       C  0.79686260  0.95846483  0.13277314     0.79200
C2336       C  0.86775422  0.98632170  0.19951116     0.79700
C2337       C  0.87469209  0.90972940  0.12837542     0.78600
C2338       C  0.93846196  0.98541862  0.12869948     0.79000
C2339       C  0.85160365  0.54993515  0.12772883     0.80200
C2340       C  0.86331549  0.98708856  0.06084455     0.79200
Zn2341     Zn  0.10394616  0.99120746  0.14519495     1.49700
Zn2342     Zn  0.13654949  0.54084876  0.15271266     1.49400
Zn2343     Zn  0.14853855  0.50118707  0.10720504     1.49100
Zn2344     Zn  0.09693983  0.53753556  0.10590254     1.49500
O2345       O  0.12092534  0.51801105  0.12769521    -1.82100
O2346       O  0.11088460  0.49258232  0.18447041    -0.72700
O2347       O  0.17458019  0.54469652  0.14610267    -0.72500
O2348       O  0.14981493  0.96088363  0.10963390    -0.72000
O2349       O  0.13304257  0.52887824  0.18909457    -0.72700
O2350       O  0.11295842  0.95707486  0.13249086    -0.72300
O2351       O  0.18497037  0.51762588  0.11502222    -0.72900
O2352       O  0.10414098  0.52968932  0.06852466    -0.72300
O2353       O  0.12461896  0.57686224  0.14805833    -0.73000
O2354       O  0.14153204  0.50759517  0.06929293    -0.72400
O2355       O  0.10490111  0.57582389  0.11026028    -0.72900
O2356       O  0.05830039  0.52852222  0.11444633    -0.72800
O2357       O  0.06545009  0.99388138  0.14058429    -0.72600
C2358       C  0.12320766  0.50845410  0.19856134     0.79200
C2359       C  0.19134667  0.53550791  0.13068374     0.79700
C2360       C  0.13144290  0.94720871  0.11954947     0.78600
C2361       C  0.12306325  0.51859410  0.05685762     0.79000
C2362       C  0.11572349  0.58832854  0.12842164     0.80200
C2363       C  0.04800990  0.51251126  0.13018326     0.79200
Zn2364     Zn  0.15119020  0.75051605  0.10432979     1.49700
Zn2365     Zn  0.14024562  0.79026037  0.14923167     1.49400
Zn2366     Zn  0.09833950  0.78685216  0.10340520     1.49100
Zn2367     Zn  0.10237245  0.74319012  0.14427308     1.49500
O2368       O  0.12319439  0.76758690  0.12478315    -1.82100
O2369       O  0.18843641  0.76712440  0.11098531    -0.72700
O2370       O  0.13030082  0.82655512  0.14286525    -0.72500
O2371       O  0.10704242  0.78006133  0.06654987    -0.72000
O2372       O  0.17876476  0.79227284  0.14380643    -0.72700
O2373       O  0.14331236  0.75601282  0.06689718    -0.72300
O2374       O  0.10469191  0.82516098  0.10842007    -0.72900
O2375       O  0.06361280  0.74478075  0.13744711    -0.72300
O2376       O  0.13500268  0.77960381  0.18574730    -0.73000
O2377       O  0.05938440  0.77630324  0.10935875    -0.72400
O2378       O  0.10779077  0.74639484  0.18184011    -0.72900
O2379       O  0.11367246  0.70832325  0.13532600    -0.72800
O2380       O  0.14906813  0.71106905  0.11015528    -0.72600
C2381       C  0.19532903  0.78368333  0.12784462     0.79200
C2382       C  0.11832877  0.83771531  0.12466732     0.79700
C2383       C  0.12532568  0.76807789  0.05486847     0.78600
C2384       C  0.04914205  0.75862127  0.12322623     0.79000
C2385       C  0.12166106  0.76133983  0.19550867     0.80200
C2386       C  0.13194894  0.69785112  0.12251550     0.79200
Zn2387     Zn  0.14979774  0.71225043  0.34826277     1.49700
Zn2388     Zn  0.15734512  0.75060708  0.39480893     1.49400
Zn2389     Zn  0.10959100  0.75654394  0.35483507     1.49100
Zn2390     Zn  0.10731512  0.71176454  0.39427084     1.49500
O2391       O  0.13114230  0.73274080  0.37353954    -1.82100
O2392       O  0.18825088  0.71108895  0.35518225    -0.72700
O2393       O  0.15640332  0.78958736  0.38705012    -0.72500
O2394       O  0.11155376  0.75218780  0.31720627    -0.72000
O2395       O  0.19392783  0.73356277  0.39079927    -0.72700
O2396       O  0.14402374  0.72412084  0.31197730    -0.72300
O2397       O  0.12147768  0.79140103  0.36152553    -0.72900
O2398       O  0.06808419  0.72057908  0.38861315    -0.72300
O2399       O  0.14778096  0.74609467  0.43196990    -0.73000
O2400       O  0.07208658  0.75572609  0.36486851    -0.72400
O2401       O  0.11500113  0.71767994  0.43163295    -0.72900
O2402       O  0.11528758  0.67450922  0.38717505    -0.72800
O2403       O  0.14049569  0.67528014  0.35248238    -0.72600
C2404       C  0.20265404  0.71831311  0.37363731     0.79200
C2405       C  0.13968826  0.80241783  0.37388042     0.79700
C2406       C  0.12718056  0.73976473  0.30290528     0.78600
C2407       C  0.05797226  0.74011411  0.37750309     0.79000
C2408       C  0.13118658  0.73193993  0.44371303     0.80200
C2409       C  0.12879266  0.66293903  0.37015293     0.79200
Zn2410     Zn  0.15032694  0.96006880  0.39800749     1.49700
Zn2411     Zn  0.11384126  0.50668115  0.39750931     1.49400
Zn2412     Zn  0.16119410  0.50190961  0.35694634     1.49100
Zn2413     Zn  0.10778995  0.96372423  0.35398991     1.49500
O2414       O  0.13273084  0.98312529  0.37510385    -1.82100
O2415       O  0.14788435  0.96995864  0.43441140    -0.72700
O2416       O  0.12462440  0.54205720  0.38982551    -0.72500
O2417       O  0.19682243  0.98485050  0.35868117    -0.72000
O2418       O  0.12014879  0.00265125  0.43318304    -0.72700
O2419       O  0.18754714  0.95626002  0.38883305    -0.72300
O2420       O  0.16027117  0.54025576  0.36518979    -0.72900
O2421       O  0.11356155  0.97379273  0.31701532    -0.72300
O2422       O  0.07562274  0.50506488  0.38993986    -0.73000
O2423       O  0.14902065  0.99887587  0.31829716    -0.72400
O2424       O  0.06942391  0.97360921  0.36239872    -0.72900
O2425       O  0.11455288  0.92495886  0.35852103    -0.72800
O2426       O  0.13782501  0.92470471  0.39430022    -0.72600
C2427       C  0.13467648  0.98728883  0.44564131     0.79200
C2428       C  0.14297791  0.55307725  0.37750748     0.79700
C2429       C  0.20355324  0.96595739  0.37294871     0.78600
C2430       C  0.13047474  0.98812982  0.30586519     0.79000
C2431       C  0.05990942  0.99112396  0.37684759     0.80200
C2432       C  0.12654830  0.91278241  0.37628861     0.79200
C2433       C  0.12830118  0.84387851  0.35248890     0.25700
C2434       C  0.13956352  0.83082720  0.37345704    -0.22500
C2435       C  0.14643399  0.84486380  0.39525527     0.20600
C2436       C  0.14135838  0.87125362  0.39646860     0.25600
C2437       C  0.12951224  0.88434236  0.37568370    -0.22400
C2438       C  0.12326624  0.87026937  0.35360707     0.20500
F2439       F  0.11250753  0.88196268  0.33290340    -0.12400
F2440       F  0.12189067  0.83098178  0.33081275    -0.14700
F2441       F  0.14779364  0.88380748  0.41832017    -0.14700
F2442       F  0.15683097  0.83286347  0.41596400    -0.12400
C2443       C  0.12544581  0.62138487  0.39428017     0.25700
C2444       C  0.13262131  0.63470547  0.37188912    -0.22500
C2445       C  0.14568924  0.62110192  0.35226879     0.20600
C2446       C  0.15060397  0.59474090  0.35468961     0.25600
C2447       C  0.14255444  0.58143131  0.37669238    -0.22400
C2448       C  0.13038528  0.59513073  0.39663525     0.20500
F2449       F  0.12300139  0.58302894  0.41851780    -0.12400
F2450       F  0.11389098  0.63369396  0.41421316    -0.14700
F2451       F  0.16205475  0.58205190  0.33494305    -0.14700
F2452       F  0.15344262  0.63310947  0.33047613    -0.12400
C2453       C  0.10010810  0.74961212  0.23668424     0.25700
C2454       C  0.12293099  0.75662670  0.22314171    -0.22500
C2455       C  0.14728146  0.75753827  0.23589899     0.20600
C2456       C  0.14882113  0.75112239  0.26176836     0.25600
C2457       C  0.12594717  0.74437584  0.27531320    -0.22400
C2458       C  0.10154930  0.74395578  0.26270403     0.20500
F2459       F  0.07917259  0.73773770  0.27555868    -0.12400
F2460       F  0.07635363  0.74868426  0.22480205    -0.14700
F2461       F  0.17248809  0.75228700  0.27379310    -0.14700
F2462       F  0.16967391  0.76393587  0.22315053    -0.12400
C2463       C  0.14665477  0.87697668  0.12815717     0.25700
C2464       C  0.12222258  0.86571632  0.12154531    -0.22500
C2465       C  0.10237475  0.88128896  0.11118346     0.20600
C2466       C  0.10630471  0.90780819  0.10889572     0.25600
C2467       C  0.13030665  0.91913846  0.11643193    -0.22400
C2468       C  0.15067980  0.90348758  0.12547871     0.20500
F2469       F  0.17381408  0.91403431  0.13323356    -0.12400
F2470       F  0.16669421  0.86231674  0.13728753    -0.14700
F2471       F  0.08625844  0.92269011  0.10014292    -0.14700
F2472       F  0.07875603  0.87106795  0.10441058    -0.12400
C2473       C  0.13196678  0.65709075  0.14661742     0.25700
C2474       C  0.13227595  0.66956077  0.12285516    -0.22500
C2475       C  0.12687864  0.65534738  0.10069325     0.20600
C2476       C  0.12077653  0.62902062  0.10239886     0.25600
C2477       C  0.11995888  0.61656313  0.12637928    -0.22400
C2478       C  0.12604024  0.63095019  0.14840953     0.20500
F2479       F  0.12574232  0.61992052  0.17192959    -0.12400
F2480       F  0.13661118  0.67058355  0.16835449    -0.14700
F2481       F  0.11589575  0.61576609  0.08058337    -0.14700
F2482       F  0.12613846  0.66722452  0.07760349    -0.12400
C2483       C  0.11381548  0.48151112  0.23761321     0.25700
C2484       C  0.12635936  0.50293456  0.22629650    -0.22500
C2485       C  0.14262582  0.01669958  0.24005279     0.20600
C2486       C  0.14449668  0.01181865  0.26619498     0.25600
C2487       C  0.12837566  0.99306861  0.27795309    -0.22400
C2488       C  0.11662253  0.47643688  0.26369014     0.20500
F2489       F  0.10422247  0.45552006  0.27362423    -0.12400
F2490       F  0.09857359  0.46537221  0.22357265    -0.14700
F2491       F  0.16206844  0.02583042  0.27994044    -0.14700
F2492       F  0.15900692  0.03456014  0.22965875    -0.12400
C2493       C  0.97647004  0.50719380  0.10963456     0.25700
C2494       C  0.96743227  0.98924943  0.12743962    -0.22500
C2495       C  0.98362890  0.98236714  0.14808629     0.20600
C2496       C  0.01047875  0.98852150  0.14788519     0.25600
C2497       C  0.01892759  0.50872955  0.13127730    -0.22400
C2498       C  0.00327318  0.51357069  0.10968291     0.20500
F2499       F  0.01408815  0.52350485  0.08809352    -0.12400
F2500       F  0.96240618  0.51149960  0.08800877    -0.14700
F2501       F  0.02521289  0.98189079  0.16849641    -0.14700
F2502       F  0.97337092  0.97049597  0.16896929    -0.12400
C2503       C  0.86880048  0.84304791  0.10070729     0.25700
C2504       C  0.85961356  0.82870610  0.12165860    -0.22500
C2505       C  0.85729509  0.84084293  0.14558231     0.20600
C2506       C  0.86387836  0.86695744  0.14836418     0.25600
C2507       C  0.87259248  0.88135629  0.12718467    -0.22400
C2508       C  0.87515249  0.86901013  0.10340672     0.20500
F2509       F  0.88379587  0.88217000  0.08258848    -0.12400
F2510       F  0.87156281  0.83187899  0.07743112    -0.14700
F2511       F  0.86090623  0.87831160  0.17151854    -0.14700
F2512       F  0.84955066  0.82723079  0.16642631    -0.12400
C2513       C  0.85505387  0.61725251  0.10229943     0.25700
C2514       C  0.86292963  0.63133686  0.12410682    -0.22500
C2515       C  0.86417436  0.61837752  0.14776174     0.20600
C2516       C  0.85811141  0.59204603  0.14940452     0.25600
C2517       C  0.85080036  0.57820823  0.12751979    -0.22400
C2518       C  0.84922689  0.59104018  0.10404286     0.20500
F2519       F  0.84282337  0.57788767  0.08251859    -0.12400
F2520       F  0.85349605  0.62860984  0.07897719    -0.14700
F2521       F  0.86078480  0.57970527  0.17211342    -0.14700
F2522       F  0.87126554  0.63107386  0.16931976    -0.12400
C2523       C  0.97719884  0.75678609  0.10178121     0.25700
C2524       C  0.96523596  0.74104164  0.12058542    -0.22500
C2525       C  0.98120028  0.73147021  0.14039938     0.20600
C2526       C  0.00817487  0.73744718  0.14141205     0.25600
C2527       C  0.02010113  0.75327927  0.12265230    -0.22400
C2528       C  0.00413172  0.76282665  0.10284726     0.20500
F2529       F  0.01458938  0.77770822  0.08406840    -0.12400
F2530       F  0.96291773  0.76639647  0.08204900    -0.14700
F2531       F  0.02248999  0.72788154  0.16113920    -0.14700
F2532       F  0.97069192  0.71671860  0.15926150    -0.12400
C2533       C  0.99373103  0.77692306  0.37988270     0.25700
C2534       C  0.97523938  0.75763759  0.37409832    -0.22500
C2535       C  0.98408560  0.73196990  0.37156970     0.20600
C2536       C  0.01086696  0.72592152  0.37407289     0.25600
C2537       C  0.02937494  0.74540944  0.37871946    -0.22400
C2538       C  0.02052719  0.77090680  0.38190225     0.20500
F2539       F  0.03796557  0.79012428  0.38681869    -0.12400
F2540       F  0.98605015  0.80177818  0.38272176    -0.14700
F2541       F  0.01883708  0.70122111  0.37070646    -0.14700
F2542       F  0.96679677  0.71259996  0.36677159    -0.12400
C2543       C  0.87826357  0.72883387  0.23409168     0.25700
C2544       C  0.86638949  0.74600455  0.21688053    -0.22500
C2545       C  0.85767340  0.77007440  0.22604720     0.20600
C2546       C  0.86067506  0.77669171  0.25183499     0.25600
C2547       C  0.87236757  0.75936021  0.26914664    -0.22400
C2548       C  0.88113672  0.73533108  0.25983431     0.20500
F2549       F  0.89193281  0.71758377  0.27572584    -0.12400
F2550       F  0.88653977  0.70531716  0.22618271    -0.14700
F2551       F  0.85230752  0.80019653  0.25971382    -0.14700
F2552       F  0.84677507  0.78757415  0.20994610    -0.12400
C2553       C  0.84948424  0.91115689  0.36179456     0.25700
C2554       C  0.86228513  0.92381490  0.38185988    -0.22500
C2555       C  0.87953494  0.90997991  0.39759788     0.20600
C2556       C  0.88436272  0.88388904  0.39313094     0.25600
C2557       C  0.87217262  0.87108363  0.37250208    -0.22400
C2558       C  0.85425289  0.88504827  0.35714754     0.20500
F2559       F  0.84162419  0.87371701  0.33726648    -0.12400
F2560       F  0.83359140  0.92451284  0.34569772    -0.14700
F2561       F  0.90145009  0.87144318  0.40877799    -0.14700
F2562       F  0.89275595  0.92215800  0.41661601    -0.12400
C2563       C  0.87465214  0.63405793  0.39641228     0.25700
C2564       C  0.87927554  0.62062779  0.37347693    -0.22500
C2565       C  0.87791469  0.63405352  0.35020407     0.20600
C2566       C  0.87237871  0.66031383  0.34980747     0.25600
C2567       C  0.86776116  0.67379915  0.37263502    -0.22400
C2568       C  0.86881341  0.66046791  0.39596888     0.20500
F2569       F  0.86534602  0.67320809  0.41833040    -0.12400
F2570       F  0.87512305  0.62152725  0.41916793    -0.14700
F2571       F  0.87181410  0.67273291  0.32697312    -0.14700
F2572       F  0.88231052  0.62177767  0.32772299    -0.12400
C2573       C  0.01393569  0.98538582  0.35953354     0.25700
C2574       C  0.03108666  0.99675716  0.37730771    -0.22500
C2575       C  0.02279371  0.52104285  0.38422346     0.20600
C2576       C  0.99580941  0.52667418  0.38406475     0.25600
C2577       C  0.97753882  0.50884881  0.37439816    -0.22400
C2578       C  0.98715472  0.99170130  0.35928715     0.20500
F2579       F  0.97166041  0.98032739  0.34142214    -0.12400
F2580       F  0.02301406  0.96831210  0.34201433    -0.14700
F2581       F  0.98768847  0.54980790  0.39314922    -0.14700
F2582       F  0.03956629  0.53921143  0.39335851    -0.12400
C2583       C  0.89002465  0.98487924  0.26882311     0.25700
C2584       C  0.87038920  0.50542690  0.27858308    -0.22500
C2585       C  0.85306782  0.51961828  0.26296578     0.20600
C2586       C  0.84979304  0.51326729  0.23722445     0.25600
C2587       C  0.87044276  0.99266757  0.22703038    -0.22400
C2588       C  0.88748807  0.97858023  0.24298680     0.20500
F2589       F  0.90162321  0.95844916  0.23376367    -0.12400
F2590       F  0.90667489  0.97067101  0.28340933    -0.14700
F2591       F  0.83339458  0.52795268  0.22284053    -0.14700
F2592       F  0.83909063  0.53971243  0.27249291    -0.12400
C2593       C  0.74408721  0.82682071  0.38632470     0.25700
C2594       C  0.72773597  0.82434550  0.36467853    -0.22500
C2595       C  0.73563528  0.80723821  0.34510784     0.20600
C2596       C  0.75909544  0.79331618  0.34707043     0.25600
C2597       C  0.77520887  0.79579245  0.36860837    -0.22400
C2598       C  0.76754683  0.81261383  0.38825705     0.20500
F2599       F  0.78347375  0.81627201  0.40875232    -0.12400
F2600       F  0.73747971  0.84294858  0.40566240    -0.14700
F2601       F  0.76640023  0.77763587  0.32759266    -0.14700
F2602       F  0.72089072  0.80408315  0.32371524    -0.12400
C2603       C  0.64834366  0.96662610  0.38836567     0.25700
C2604       C  0.64261744  0.95301499  0.36599832    -0.22500
C2605       C  0.63314095  0.96651912  0.34453153     0.20600
C2606       C  0.62836754  0.99296835  0.34574305     0.25600
C2607       C  0.62736015  0.50623426  0.36528238    -0.22400
C2608       C  0.64348082  0.99306711  0.38969220     0.20500
F2609       F  0.64210058  0.50434471  0.40915174    -0.12400
F2610       F  0.65712946  0.95411356  0.40947975    -0.14700
F2611       F  0.61343563  0.50524738  0.32141848    -0.14700
F2612       F  0.62814672  0.95394338  0.32233333    -0.12400
C2613       C  0.64704515  0.71630081  0.34926944     0.25700
C2614       C  0.63915013  0.70299677  0.37129651    -0.22500
C2615       C  0.62679696  0.71672258  0.39116563     0.20600
C2616       C  0.62185904  0.74305498  0.38881050     0.25600
C2617       C  0.62913453  0.75641067  0.36646457    -0.22400
C2618       C  0.64209642  0.74265735  0.34682169     0.20500
F2619       F  0.64991719  0.75453427  0.32498387    -0.12400
F2620       F  0.65840493  0.70359008  0.32948702    -0.14700
F2621       F  0.61007479  0.75536935  0.40860804    -0.14700
F2622       F  0.61926453  0.70457296  0.41297449    -0.12400
C2623       C  0.73832155  0.56476053  0.39526426     0.25700
C2624       C  0.72914428  0.57688265  0.37274954    -0.22500
C2625       C  0.74434970  0.57473473  0.35046521     0.20600
C2626       C  0.76811122  0.56097211  0.35067437     0.25600
C2627       C  0.77746733  0.54914523  0.37327588    -0.22400
C2628       C  0.76210034  0.55105739  0.39549651     0.20500
F2629       F  0.77044133  0.54041608  0.41775043    -0.12400
F2630       F  0.72433571  0.56633727  0.41732801    -0.14700
F2631       F  0.78185104  0.55898486  0.32850454    -0.14700
F2632       F  0.73576856  0.58508215  0.32816689    -0.12400
C2633       C  0.72309152  0.94724156  0.13157317     0.25700
C2634       C  0.72171167  0.92028972  0.12819110    -0.22500
C2635       C  0.74499394  0.90586757  0.12961732     0.20600
C2636       C  0.76935467  0.91834123  0.13244231     0.25600
C2637       C  0.77084188  0.94545644  0.13437029    -0.22400
C2638       C  0.74738867  0.95965995  0.13487288     0.20500
F2639       F  0.74804439  0.98569023  0.13700264    -0.12400
F2640       F  0.70079925  0.96168043  0.13136786    -0.14700
F2641       F  0.79164989  0.90390417  0.13276801    -0.14700
F2642       F  0.74434342  0.87989436  0.12686295    -0.12400
C2643       C  0.61607314  0.89064793  0.25719719     0.25700
C2644       C  0.62602428  0.86712111  0.26667520    -0.22500
C2645       C  0.63589730  0.84897861  0.24919882     0.20600
C2646       C  0.63602571  0.85427965  0.22301871     0.25600
C2647       C  0.62625236  0.87786046  0.21361775    -0.22400
C2648       C  0.61615663  0.89589725  0.23102117     0.20500
F2649       F  0.60697726  0.91901716  0.22283676    -0.12400
F2650       F  0.60678881  0.90903998  0.27324514    -0.14700
F2651       F  0.64531842  0.83599740  0.20684993    -0.14700
F2652       F  0.64521241  0.82589109  0.25731716    -0.12400
C2653       C  0.61020810  0.75322588  0.09679792     0.25700
C2654       C  0.61432934  0.74040970  0.12011240    -0.22500
C2655       C  0.62410253  0.75433475  0.14106542     0.20600
C2656       C  0.63023095  0.78052050  0.13853439     0.25600
C2657       C  0.62637358  0.79325191  0.11508760    -0.22400
C2658       C  0.61596224  0.77938694  0.09436119     0.20500
F2659       F  0.61164752  0.79110511  0.07155503    -0.12400
F2660       F  0.60077602  0.74028495  0.07621661    -0.14700
F2661       F  0.63922893  0.79357355  0.15921299    -0.14700
F2662       F  0.62883041  0.74235958  0.16365326    -0.12400
C2663       C  0.60764192  0.50487210  0.09805376     0.25700
C2664       C  0.62081340  0.99008336  0.11845211    -0.22500
C2665       C  0.63096796  0.50227163  0.13831980     0.20600
C2666       C  0.63556827  0.52887789  0.13756697     0.25600
C2667       C  0.62595349  0.54377418  0.11712768    -0.22400
C2668       C  0.61190461  0.53138941  0.09738253     0.20500
F2669       F  0.60231181  0.54491710  0.07723114    -0.12400
F2670       F  0.60371978  0.99284553  0.07589524    -0.14700
F2671       F  0.64880279  0.54008897  0.15713494    -0.14700
F2672       F  0.63999642  0.98864802  0.16022613    -0.12400
C2673       C  0.74073445  0.65961973  0.12870334     0.25700
C2674       C  0.71715199  0.67364052  0.12790543    -0.22500
C2675       C  0.71849085  0.70085510  0.12808984     0.20600
C2676       C  0.74283095  0.71370853  0.12774685     0.25600
C2677       C  0.76635424  0.69966901  0.12678376    -0.22400
C2678       C  0.76507495  0.67248618  0.12784289     0.20500
F2679       F  0.78753837  0.65829630  0.12770815    -0.12400
F2680       F  0.74027608  0.63349223  0.12892147    -0.14700
F2681       F  0.74332287  0.73981793  0.12690024    -0.14700
F2682       F  0.69607537  0.71511155  0.12821828    -0.12400
C2683       C  0.62701841  0.60392421  0.22850146     0.25700
C2684       C  0.62578965  0.62956231  0.21980881    -0.22500
C2685       C  0.62598559  0.64963879  0.23777755     0.20600
C2686       C  0.62809338  0.64415520  0.26393189     0.25600
C2687       C  0.62921254  0.61850339  0.27255076    -0.22400
C2688       C  0.62830093  0.59845302  0.25465271     0.20500
F2689       F  0.62930871  0.57355443  0.26248835    -0.12400
F2690       F  0.62651971  0.58410314  0.21163220    -0.14700
F2691       F  0.62850466  0.66388195  0.28091064    -0.14700
F2692       F  0.62491190  0.67454763  0.22997299    -0.12400
C2693       C  0.23156805  0.92657427  0.37463835     0.25700
C2694       C  0.22979909  0.95351919  0.37119642    -0.22500
C2695       C  0.25311573  0.96782697  0.36849126     0.20600
C2696       C  0.27768334  0.95563815  0.37096476     0.25600
C2697       C  0.27925978  0.92887715  0.37553827    -0.22400
C2698       C  0.25602621  0.91440336  0.37657393     0.20500
F2699       F  0.25694944  0.88865027  0.38091621    -0.12400
F2700       F  0.20944752  0.91194564  0.37661960    -0.14700
F2701       F  0.29998773  0.97000428  0.36908009    -0.14700
F2702       F  0.25214869  0.99367639  0.36480416    -0.12400
C2703       C  0.48731628  0.86390769  0.39393179     0.25700
C2704       C  0.47573991  0.88332243  0.37863438    -0.22500
C2705       C  0.49155709  0.89560879  0.36021227     0.20600
C2706       C  0.51807643  0.88890650  0.35727190     0.25600
C2707       C  0.52969589  0.86966635  0.37269446    -0.22400
C2708       C  0.51386674  0.85723533  0.39100992     0.20500
F2709       F  0.52404308  0.83875443  0.40646624    -0.12400
F2710       F  0.47301760  0.85105847  0.41180567    -0.14700
F2711       F  0.53228353  0.90141227  0.33909755    -0.14700
F2712       F  0.48142810  0.91406320  0.34471044    -0.12400
C2713       C  0.39051008  0.75914195  0.39770039     0.25700
C2714       C  0.37934054  0.74599902  0.37687311    -0.32100
C2715       C  0.36286245  0.75984574  0.35995880     0.20600
C2716       C  0.35766403  0.78595489  0.36389485     0.25600
C2717       C  0.36891654  0.79900148  0.38467597    -0.22400
C2718       C  0.38521221  0.78519495  0.40164734     0.20500
F2719       F  0.39622583  0.79692417  0.42220375    -0.12400
F2720       F  0.40659071  0.74687848  0.41445319    -0.14700
F2721       F  0.34230848  0.79859538  0.34676686    -0.14700
F2722       F  0.35150480  0.74823299  0.33951870    -0.12400
C2723       C  0.37248496  0.53530722  0.35796422     0.25700
C2724       C  0.36294496  0.54906988  0.37924212    -0.22500
C2725       C  0.35756366  0.53563005  0.40186081     0.20600
C2726       C  0.36299973  0.50923399  0.40364088     0.25600
C2727       C  0.37682593  0.99526977  0.38353789    -0.22400
C2728       C  0.37795318  0.50900169  0.35965732     0.20500
F2729       F  0.38721950  0.49677403  0.33860096    -0.12400
F2730       F  0.37693395  0.54750081  0.33540397    -0.14700
F2731       F  0.36089939  0.99731484  0.42702033    -0.14700
F2732       F  0.34835384  0.54825968  0.42271261    -0.12400
C2733       C  0.23824307  0.69487111  0.39770301     0.25700
C2734       C  0.22942819  0.70703979  0.37522735    -0.22500
C2735       C  0.24446143  0.70449451  0.35287529     0.20600
C2736       C  0.26792627  0.69048372  0.35292989     0.25600
C2737       C  0.27701411  0.67828509  0.37536700    -0.22400
C2738       C  0.26177960  0.68052764  0.39776468     0.20500
F2739       F  0.26984357  0.66926894  0.41980481    -0.12400
F2740       F  0.22347331  0.69590076  0.41929735    -0.14700
F2741       F  0.28163818  0.68866074  0.33072071    -0.14700
F2742       F  0.23628445  0.71553780  0.33074385    -0.12400
C2743       C  0.48567455  0.61673022  0.35299900     0.25700
C2744       C  0.47532861  0.63217521  0.37284433    -0.22500
C2745       C  0.49253801  0.64080331  0.39200269     0.20600
C2746       C  0.51919809  0.63401140  0.39155991     0.25600
C2747       C  0.52959430  0.61851630  0.37176107    -0.22400
C2748       C  0.51239571  0.60997730  0.35250361     0.20500
F2749       F  0.52140632  0.59543958  0.33283114    -0.12400
F2750       F  0.47003102  0.60828883  0.33371458    -0.14700
F2751       F  0.53473411  0.64259206  0.41086069    -0.14700
F2752       F  0.48355927  0.65542538  0.41162587    -0.12400
C2753       C  0.23342847  0.80021779  0.15333343     0.25700
C2754       C  0.22248028  0.79474905  0.12922461    -0.22500
C2755       C  0.23559092  0.80407063  0.10735697     0.20600
C2756       C  0.25885994  0.81883561  0.10966976     0.25600
C2757       C  0.26964453  0.82440397  0.13390934    -0.22400
C2758       C  0.25668842  0.81458950  0.15563489     0.20500
F2759       F  0.26633310  0.81925373  0.17935677    -0.12400
F2760       F  0.22135078  0.79176533  0.17492924    -0.14700
F2761       F  0.27116052  0.82714701  0.08815278    -0.14700
F2762       F  0.22531039  0.79984007  0.08381654    -0.12400
C2763       C  0.48566834  0.85213087  0.11249883     0.25700
C2764       C  0.46942574  0.86770593  0.12783731    -0.22500
C2765       C  0.48083301  0.88954109  0.13963284     0.20600
C2766       C  0.50751934  0.89550767  0.13624651     0.25600
C2767       C  0.52377061  0.87989398  0.12101924    -0.22400
C2768       C  0.51241178  0.85810844  0.10913887     0.20500
F2769       F  0.52723946  0.84206884  0.09458739    -0.12400
F2770       F  0.47582163  0.83092966  0.10073717    -0.14700
F2771       F  0.51732202  0.91681702  0.14785875    -0.14700
F2772       F  0.46621133  0.90551640  0.15444549    -0.12400
C2773       C  0.35039979  0.86339634  0.25075969     0.25700
C2774       C  0.37199159  0.86931353  0.23498681    -0.22500
C2775       C  0.39353595  0.88278958  0.24562259     0.20600
C2776       C  0.39344865  0.89009630  0.27134798     0.25600
C2777       C  0.37187854  0.88402234  0.28717532    -0.22400
C2778       C  0.35027363  0.87072824  0.27642643     0.20500
F2779       F  0.32862382  0.86504734  0.29061942    -0.12400
F2780       F  0.32891970  0.85111919  0.24124259    -0.14700
F2781       F  0.41478238  0.90270233  0.28076624    -0.14700
F2782       F  0.41499716  0.88869071  0.23123508    -0.12400
C2783       C  0.37674516  0.96671324  0.15282852     0.25700
C2784       C  0.35962935  0.95341711  0.13603577    -0.22500
C2785       C  0.34554255  0.96760543  0.11783418     0.20600
C2786       C  0.34923580  0.99419417  0.11571906     0.25600
C2787       C  0.36402044  0.50751295  0.13224219    -0.22400
C2788       C  0.38057104  0.99325283  0.15062222     0.20500
F2789       F  0.37730003  0.50671726  0.17632311    -0.12400
F2790       F  0.39018929  0.95403552  0.17138992    -0.14700
F2791       F  0.34934543  0.50537717  0.08837752    -0.14700
F2792       F  0.32881012  0.95571671  0.10141729    -0.12400
C2793       C  0.34664367  0.71693803  0.15183953     0.25700
C2794       C  0.35355096  0.70433296  0.12914046    -0.22500
C2795       C  0.36531613  0.71852893  0.10928885     0.20600
C2796       C  0.37119075  0.74455325  0.11243389     0.25600
C2797       C  0.36541373  0.75712683  0.13560342    -0.22400
C2798       C  0.35255652  0.74303963  0.15511188     0.20500
F2799       F  0.34596460  0.75429275  0.17760340    -0.12400
F2800       F  0.33554888  0.70368478  0.17146776    -0.14700
F2801       F  0.38245383  0.75732757  0.09258304    -0.14700
F2802       F  0.37156593  0.70702210  0.08681150    -0.12400
C2803       C  0.22654816  0.56305471  0.15099234     0.25700
C2804       C  0.21799234  0.54768200  0.13028885    -0.22500
C2805       C  0.23365550  0.54694298  0.10817917     0.20600
C2806       C  0.25708625  0.56115793  0.10671894     0.25600
C2807       C  0.26573080  0.57643086  0.12744033    -0.22400
C2808       C  0.25003467  0.57724707  0.14955147     0.20500
F2809       F  0.25768835  0.59121468  0.17015019    -0.12400
F2810       F  0.21225104  0.56433236  0.17288785    -0.14700
F2811       F  0.27118911  0.56008781  0.08470104    -0.14700
F2812       F  0.22591185  0.53316102  0.08749497    -0.12400
C2813       C  0.47448483  0.64469733  0.13184293     0.25700
C2814       C  0.46513865  0.61909533  0.13291018    -0.22500
C2815       C  0.48353375  0.59892716  0.13383609     0.20600
C2816       C  0.51063554  0.60421656  0.13255461     0.25600
C2817       C  0.51986770  0.62978895  0.13105159    -0.22400
C2818       C  0.50156488  0.64996944  0.13122358     0.20500
F2819       F  0.50986369  0.67477434  0.12962396    -0.12400
F2820       F  0.45733731  0.66473642  0.13138590    -0.14700
F2821       F  0.52794012  0.58430479  0.13281617    -0.14700
F2822       F  0.47529504  0.57407347  0.13488509    -0.12400
C2823       C  0.38596037  0.61121404  0.24002968     0.25700
C2824       C  0.36512801  0.62109137  0.22521463    -0.22500
C2825       C  0.34736488  0.63850186  0.23673944     0.20600
C2826       C  0.35011708  0.64537246  0.26241920     0.25600
C2827       C  0.37061349  0.63499301  0.27725202    -0.22400
C2828       C  0.38865888  0.61807675  0.26562842     0.20500
F2829       F  0.40924187  0.60818506  0.27896105    -0.12400
F2830       F  0.40401714  0.59491169  0.22985718    -0.14700
F2831       F  0.33225199  0.66172750  0.27284403    -0.14700
F2832       F  0.32720389  0.64901920  0.22328515    -0.12400
C2833       C  0.15641362  0.97721624  0.48719558     0.25700
C2834       C  0.13598122  0.98935255  0.47364514    -0.22500
C2835       C  0.11642070  0.00283043  0.48721249     0.20600
C2836       C  0.11680952  0.00341093  0.51380346     0.25600
C2837       C  0.13672886  0.99048233  0.52735202    -0.22400
C2838       C  0.15679014  0.97778861  0.51373974     0.20500
F2839       F  0.17678202  0.96565682  0.52606179    -0.12400
F2840       F  0.17608330  0.96461338  0.47484755    -0.14700
F2841       F  0.09693110  0.01563036  0.52620263    -0.14700
F2842       F  0.09620569  0.01459297  0.47488661    -0.12400
C2843       C  0.13927666  0.75329751  0.51256476     0.25700
C2844       C  0.13128164  0.73116750  0.52592213    -0.22500
C2845       C  0.12309651  0.70938348  0.51226761     0.20600
C2846       C  0.12261762  0.70976503  0.48556043     0.25600
C2847       C  0.13093047  0.73181478  0.47202395    -0.22400
C2848       C  0.13940716  0.75354800  0.48585579     0.20500
F2849       F  0.14749360  0.77520391  0.47357518    -0.12400
F2850       F  0.14763766  0.77447088  0.52542243    -0.14700
F2851       F  0.11459874  0.68830934  0.47298133    -0.14700
F2852       F  0.11505698  0.68789092  0.52484544    -0.12400
C2853       C  0.13542809  0.84412321  0.59976298     0.25700
C2854       C  0.14306909  0.83103503  0.62209638    -0.22500
C2855       C  0.14462911  0.84468005  0.64518610     0.20600
C2856       C  0.13807324  0.87085145  0.64604508     0.25600
C2857       C  0.13023655  0.88384876  0.62374644    -0.22400
C2858       C  0.12926820  0.87026702  0.60053830     0.20500
F2859       F  0.12210614  0.88227934  0.57855851    -0.12400
F2860       F  0.13365613  0.83147021  0.57713855    -0.14700
F2861       F  0.14014991  0.88365613  0.66852376    -0.14700
F2862       F  0.15133957  0.83242267  0.66712744    -0.12400
C2863       C  0.15842078  0.62349325  0.63389824     0.25700
C2864       C  0.13304466  0.63439405  0.63582034    -0.22500
C2865       C  0.11122557  0.61816791  0.63892052     0.20600
C2866       C  0.11455006  0.59141212  0.63838786     0.25600
C2867       C  0.13985170  0.58046001  0.63517177    -0.22400
C2868       C  0.16182425  0.59676621  0.63386357     0.20500
F2869       F  0.18640915  0.58690619  0.63105878    -0.12400
F2870       F  0.17997002  0.63885032  0.63151958    -0.14700
F2871       F  0.09289826  0.57615841  0.64059295    -0.14700
F2872       F  0.08659330  0.62814383  0.64091997    -0.12400
C2873       C  0.13528921  0.74826955  0.98578315     0.25700
C2874       C  0.12604020  0.77014881  0.97287552    -0.22500
C2875       C  0.11710975  0.79139093  0.98689117     0.20600
C2876       C  0.11665754  0.79056351  0.01352202     0.25600
C2877       C  0.12582552  0.76867170  0.02664599    -0.22400
C2878       C  0.13552173  0.74764178  0.01252203     0.20500
F2879       F  0.14462223  0.72626706  0.02455172    -0.12400
F2880       F  0.14451368  0.72774765  0.97248558    -0.14700
F2881       F  0.10766226  0.81141094  0.02646796    -0.14700
F2882       F  0.10816741  0.81274749  0.97470606    -0.12400
C2883       C  0.10848488  0.75818107  0.76082168     0.25700
C2884       C  0.13146337  0.75975355  0.77580916    -0.22500
C2885       C  0.15600859  0.75502799  0.76402246     0.20600
C2886       C  0.15750871  0.74904176  0.73796098     0.25600
C2887       C  0.13449844  0.74708396  0.72314005    -0.22400
C2888       C  0.10997833  0.75170442  0.73487168     0.20500
F2889       F  0.08738899  0.75057396  0.72104176    -0.12400
F2890       F  0.08441800  0.76228185  0.77138352    -0.14700
F2891       F  0.18149963  0.74461326  0.72734446    -0.14700
F2892       F  0.17871539  0.75650093  0.77763993    -0.12400
C2893       C  0.14726072  0.51378542  0.01478691     0.25700
C2894       C  0.12372720  0.51885494  0.02826917    -0.22500
C2895       C  0.10092165  0.52481038  0.01406618     0.20600
C2896       C  0.10162256  0.52571853  0.98731076     0.25600
C2897       C  0.12510179  0.52059414  0.97385156    -0.22400
C2898       C  0.14791376  0.51461141  0.98797909     0.20500
F2899       F  0.17117769  0.51030583  0.97590591    -0.12400
F2900       F  0.16996761  0.50867318  0.02749809    -0.14700
F2901       F  0.07900200  0.53112571  0.97457354    -0.14700
F2902       F  0.07764267  0.52944594  0.02599248    -0.12400
C2903       C  0.11634892  0.91181582  0.84986202     0.25700
C2904       C  0.12888274  0.92415295  0.87062714    -0.22500
C2905       C  0.13744059  0.90921688  0.89125819     0.20600
C2906       C  0.13251514  0.88273711  0.89174237     0.25600
C2907       C  0.11888131  0.87048294  0.87148170    -0.22400
C2908       C  0.11140397  0.88532814  0.85029635     0.20500
F2909       F  0.09886147  0.87440317  0.83014363    -0.12400
F2910       F  0.10850949  0.92550664  0.82910741    -0.14700
F2911       F  0.14128530  0.86917467  0.91221410    -0.14700
F2912       F  0.14949962  0.92036148  0.91157040    -0.12400
C2913       C  0.13391189  0.63529108  0.85161018     0.25700
C2914       C  0.12462702  0.62156126  0.87317305    -0.22500
C2915       C  0.12193383  0.63479085  0.89646615     0.20600
C2916       C  0.12738237  0.66113032  0.89790997     0.25600
C2917       C  0.13577869  0.67486997  0.87620816    -0.22400
C2918       C  0.13950682  0.66164165  0.85318206     0.20500
F2919       F  0.14705093  0.67450400  0.83179790    -0.12400
F2920       F  0.13704834  0.62341144  0.82873336    -0.14700
F2921       F  0.12422034  0.67337962  0.92059856    -0.14700
F2922       F  0.11448672  0.62223631  0.91805276    -0.12400
C2923       C  0.15050872  0.51527800  0.76237856     0.25700
C2924       C  0.12694308  0.50983020  0.77550673    -0.22500
C2925       C  0.10454586  0.99382064  0.76194095     0.20600
C2926       C  0.10771170  0.98640087  0.73647725     0.25600
C2927       C  0.13021895  0.99393367  0.72255170    -0.22400
C2928       C  0.15398277  0.50724647  0.73714762     0.20500
F2929       F  0.17728443  0.51256222  0.72549928    -0.12400
F2930       F  0.17065887  0.52772854  0.77414805    -0.14700
F2931       F  0.08838434  0.97214580  0.72545527    -0.14700
F2932       F  0.08237230  0.98628731  0.77443699    -0.12400
C2933       C  0.84147818  0.97794587  0.99245696     0.25700
C2934       C  0.86171395  0.99055830  0.97892999    -0.22500
C2935       C  0.88128071  0.00388200  0.99268066     0.20600
C2936       C  0.88127332  0.00357172  0.01933104     0.25600
C2937       C  0.86170047  0.98994372  0.03281740    -0.22400
C2938       C  0.84147311  0.97763571  0.01907171     0.20500
F2939       F  0.82168728  0.96503666  0.03133151    -0.12400
F2940       F  0.82164839  0.96570664  0.97998276    -0.14700
F2941       F  0.90429849  0.50818581  0.03077996    -0.14700
F2942       F  0.90448693  0.50973835  0.97946376    -0.12400
C2943       C  0.97899846  0.51289893  0.89807693     0.25700
C2944       C  0.96655934  0.99395096  0.88188049    -0.22500
C2945       C  0.98213701  0.98553157  0.86134957     0.20600
C2946       C  0.00859443  0.99271313  0.85954547     0.25600
C2947       C  0.02263364  0.50744496  0.87926691    -0.22400
C2948       C  0.00568849  0.51977617  0.89659836     0.20500
F2949       F  0.01480038  0.53864464  0.91218753    -0.12400
F2950       F  0.96360902  0.52570492  0.91504170    -0.14700
F2951       F  0.02241750  0.98460158  0.83886095    -0.14700
F2952       F  0.97165026  0.97100024  0.84236936    -0.12400
C2953       C  0.88765927  0.73639645  0.97942586     0.25700
C2954       C  0.86434430  0.73247608  0.96549338    -0.22500
C2955       C  0.84068475  0.72791688  0.97876085     0.20600
C2956       C  0.84036402  0.72719686  0.00550632     0.25600
C2957       C  0.86358049  0.73171668  0.01950255    -0.22400
C2958       C  0.88723338  0.73635716  0.00616363     0.20500
F2959       F  0.91013925  0.74015607  0.01900605    -0.12400
F2960       F  0.91081285  0.74074426  0.96712432    -0.14700
F2961       F  0.81723672  0.72249898  0.01771667    -0.14700
F2962       F  0.81798764  0.72341661  0.96579117    -0.12400
C2963       C  0.85265792  0.87166304  0.89570100     0.25700
C2964       C  0.86426138  0.88602628  0.87559927    -0.22500
C2965       C  0.87018060  0.87327931  0.85261468     0.20600
C2966       C  0.86586611  0.84683095  0.85024591     0.25600
C2967       C  0.85553675  0.83239035  0.87075817    -0.22400
C2968       C  0.84831625  0.84517709  0.89323062     0.20500
F2969       F  0.83835799  0.83185164  0.91337079    -0.12400
F2970       F  0.84584425  0.88301996  0.91808085    -0.14700
F2971       F  0.87208431  0.83523501  0.82780636    -0.14700
F2972       F  0.88005780  0.88631058  0.83224813    -0.12400
C2973       C  0.84788599  0.59589816  0.85722288     0.25700
C2974       C  0.86399402  0.58229653  0.87439970    -0.22500
C2975       C  0.88453450  0.59574432  0.88689786     0.20600
C2976       C  0.88849328  0.62198881  0.88263549     0.25600
C2977       C  0.87210711  0.63564951  0.86582421    -0.22400
C2978       C  0.85192019  0.62219609  0.85293254     0.20500
F2979       F  0.83545449  0.63454330  0.83660216    -0.12400
F2980       F  0.82826929  0.58381116  0.84431322    -0.14700
F2981       F  0.90852970  0.63398230  0.89504482    -0.14700
F2982       F  0.90108986  0.58362921  0.90333905    -0.12400
C2983       C  0.01128358  0.74442928  0.89083556     0.25700
C2984       C  0.02351677  0.75932413  0.87153617    -0.22500
C2985       C  0.00786037  0.76837213  0.85125343     0.20600
C2986       C  0.98086924  0.76280883  0.85031323     0.25600
C2987       C  0.96868223  0.74795798  0.86960138    -0.22400
C2988       C  0.98429223  0.73883361  0.88984626     0.20500
F2989       F  0.97339393  0.72493397  0.90913596    -0.12400
F2990       F  0.02530858  0.73529909  0.91096231    -0.14700
F2991       F  0.96678030  0.77173416  0.83013963    -0.14700
F2992       F  0.01866146  0.78223550  0.83189655    -0.12400
C2993       C  0.90021292  0.77619938  0.47892823     0.25700
C2994       C  0.87578177  0.77323745  0.46648847    -0.22500
C2995       C  0.85272369  0.77068583  0.48123589     0.20600
C2996       C  0.85407914  0.77134194  0.50785837     0.25600
C2997       C  0.87851349  0.77397642  0.52014637    -0.22400
C2998       C  0.90156059  0.77630334  0.50554991     0.20500
F2999       F  0.92529217  0.77950079  0.51708697    -0.12400
F3000       F  0.92288705  0.77868639  0.46535420    -0.14700
F3001       F  0.83154571  0.76900705  0.52168790    -0.14700
F3002       F  0.82878418  0.76822827  0.46992979    -0.12400
C3003       C  0.99869090  0.78165596  0.62670344     0.25700
C3004       C  0.97962075  0.76212294  0.62787722    -0.22500
C3005       C  0.98786958  0.73638687  0.63065103     0.20600
C3006       C  0.01472829  0.73019521  0.63158944     0.25600
C3007       C  0.03388458  0.74955897  0.62902312    -0.22400
C3008       C  0.02558982  0.77542162  0.62693240     0.20500
F3009       F  0.04357688  0.79472573  0.62516802    -0.12400
F3010       F  0.99129975  0.80663698  0.62420420    -0.14700
F3011       F  0.02197441  0.70515808  0.63389655    -0.14700
F3012       F  0.96979588  0.71716355  0.63241242    -0.12400
C3013       C  0.85218968  0.74318208  0.72505429     0.25700
C3014       C  0.87087660  0.76089546  0.71536540    -0.22500
C3015       C  0.88859458  0.77246139  0.73253729     0.20600
C3016       C  0.88790284  0.76633684  0.75848118     0.25600
C3017       C  0.86936836  0.74849784  0.76817260    -0.22400
C3018       C  0.85147802  0.73707383  0.75108546     0.20500
F3019       F  0.83298340  0.72015127  0.75949044    -0.12400
F3020       F  0.83448125  0.73156240  0.70941877    -0.14700
F3021       F  0.90574543  0.77790955  0.77401649    -0.14700
F3022       F  0.90685189  0.78975410  0.72437031    -0.12400
C3023       C  0.85573112  0.51751847  0.51747712     0.25700
C3024       C  0.87889062  0.52491023  0.53044942    -0.22500
C3025       C  0.90096660  0.53228378  0.51577246     0.20600
C3026       C  0.90000807  0.53196625  0.48901147     0.25600
C3027       C  0.87692549  0.52428046  0.47603059    -0.22400
C3028       C  0.85477653  0.51717418  0.49071933     0.20500
F3029       F  0.83182724  0.51032883  0.47927183    -0.12400
F3030       F  0.83361203  0.51108470  0.53063219    -0.14700
F3031       F  0.92199403  0.53889944  0.47588451    -0.14700
F3032       F  0.92379928  0.53950696  0.52722724    -0.12400
C3033       C  0.85918313  0.91255899  0.60993228     0.25700
C3034       C  0.87315656  0.92658787  0.62835278    -0.22500
C3035       C  0.89065956  0.91334943  0.64477040     0.20600
C3036       C  0.89476727  0.88697193  0.64215728     0.25600
C3037       C  0.88139030  0.87306943  0.62325853    -0.22400
C3038       C  0.86320815  0.88610868  0.60741156     0.20500
F3039       F  0.84885360  0.87327036  0.58963066    -0.12400
F3040       F  0.84204521  0.92443195  0.59389678    -0.14700
F3041       F  0.91217891  0.87517936  0.65797336    -0.14700
F3042       F  0.90411216  0.92587673  0.66342320    -0.12400
C3043       C  0.89091521  0.63564369  0.60181762     0.25700
C3044       C  0.88497778  0.62390190  0.62545537    -0.22500
C3045       C  0.87341411  0.63904092  0.64480071     0.20600
C3046       C  0.86787200  0.66502952  0.64062981     0.25600
C3047       C  0.87405903  0.67671551  0.61719411    -0.22400
C3048       C  0.88566728  0.66179320  0.59782944     0.20500
F3049       F  0.89180361  0.67251250  0.57491159    -0.12400
F3050       F  0.90126713  0.62180442  0.58226311    -0.14700
F3051       F  0.85765241  0.67909364  0.66009467    -0.14700
F3052       F  0.86766661  0.62886106  0.66803588    -0.12400
C3053       C  0.99101161  0.99542582  0.64808898     0.25700
C3054       C  0.98267442  0.50895637  0.62925753    -0.22500
C3055       C  0.99932553  0.51819934  0.60985793     0.20600
C3056       C  0.02559363  0.51030653  0.60856388     0.25600
C3057       C  0.03274098  0.99426125  0.62521469    -0.22400
C3058       C  0.01722498  0.98740019  0.64638491     0.20500
F3059       F  0.02756959  0.97358460  0.66597174    -0.12400
F3060       F  0.97707012  0.98862411  0.66919509    -0.14700
F3061       F  0.04067664  0.51980385  0.58928517    -0.14700
F3062       F  0.99025642  0.53475163  0.59182469    -0.12400
C3063       C  0.89546840  0.49503446  0.74116868     0.25700
C3064       C  0.87880116  0.51351021  0.72974565    -0.22500
C3065       C  0.85915830  0.52500168  0.74486803     0.20600
C3066       C  0.85596289  0.51794270  0.77050358     0.25600
C3067       C  0.86935944  0.99859024  0.78233345    -0.22400
C3068       C  0.88241169  0.98184391  0.76550988     0.20500
F3069       F  0.89237972  0.95913959  0.77396651    -0.12400
F3070       F  0.91501071  0.48357736  0.72759811    -0.14700
F3071       F  0.83662933  0.52966145  0.78412234    -0.14700
F3072       F  0.84247722  0.54270091  0.73477712    -0.12400
C3073       C  0.39725904  0.89437410  0.52393425     0.25700
C3074       C  0.37336106  0.89193508  0.53745053    -0.22500
C3075       C  0.34971733  0.88906357  0.52365179     0.20600
C3076       C  0.34990074  0.88969681  0.49693837     0.25600
C3077       C  0.37373136  0.89256350  0.48360066    -0.22400
C3078       C  0.39743764  0.89440292  0.49727081     0.20500
F3079       F  0.42074672  0.89713897  0.48478451    -0.12400
F3080       F  0.42055403  0.89656588  0.53649637    -0.14700
F3081       F  0.32683778  0.88715119  0.48406147    -0.14700
F3082       F  0.32631627  0.88639420  0.53596449    -0.12400
C3083       C  0.26286066  0.92074636  0.61336619     0.25700
C3084       C  0.27825805  0.92383286  0.63544825    -0.22500
C3085       C  0.26931973  0.94101730  0.65450926     0.20600
C3086       C  0.24585410  0.95486594  0.65140143     0.25600
C3087       C  0.23054151  0.95184122  0.62925292    -0.22400
C3088       C  0.23942676  0.93455545  0.61027333     0.20500
F3089       F  0.22558029  0.93105912  0.58837103    -0.12400
F3090       F  0.27080065  0.90494194  0.59423101    -0.14700
F3091       F  0.23788451  0.97076595  0.67044748    -0.14700
F3092       F  0.28322055  0.94446861  0.67638185    -0.12400
C3093       C  0.39512898  0.65990464  0.51583842     0.25700
C3094       C  0.37592853  0.64641788  0.53005168    -0.22500
C3095       C  0.35611623  0.63305336  0.51652253     0.20600
C3096       C  0.35556634  0.63324033  0.48973360     0.25600
C3097       C  0.37478160  0.64675480  0.47553779    -0.22400
C3098       C  0.39458947  0.66007897  0.48909390     0.20500
F3099       F  0.41355906  0.67355914  0.47658193    -0.12400
F3100       F  0.41464934  0.67318620  0.52771061    -0.14700
F3101       F  0.33599743  0.62007749  0.47780555    -0.14700
F3102       F  0.33703248  0.61979113  0.52910665    -0.12400
C3103       C  0.36803645  0.78276874  0.65613187     0.25700
C3104       C  0.36714304  0.79646344  0.63308509    -0.22500
C3105       C  0.37303663  0.78374875  0.61017448     0.20600
C3106       C  0.38025248  0.75769756  0.61038255     0.25600
C3107       C  0.38156258  0.74391067  0.63359784    -0.22400
C3108       C  0.37505927  0.75682955  0.65645684     0.20500
F3109       F  0.37582398  0.74454886  0.67934812    -0.12400
F3110       F  0.36274424  0.79483685  0.67854903    -0.14700
F3111       F  0.38575079  0.74602489  0.58783251    -0.14700
F3112       F  0.37319837  0.79692037  0.58776915    -0.12400
C3113       C  0.35779197  0.53441208  0.64471157     0.25700
C3114       C  0.36972611  0.54771084  0.62452326    -0.22500
C3115       C  0.38660821  0.53440133  0.60791070     0.20600
C3116       C  0.39140396  0.50805846  0.61134439     0.25600
C3117       C  0.37893511  0.99320296  0.63306838    -0.22400
C3118       C  0.36268141  0.50818342  0.64842476     0.20500
F3119       F  0.38594905  0.99877652  0.67801100    -0.12400
F3120       F  0.34246116  0.54721890  0.66172759    -0.14700
F3121       F  0.37024914  0.98955596  0.58811784    -0.14700
F3122       F  0.39931669  0.54721722  0.58892372    -0.12400
C3123       C  0.27563454  0.69827374  0.64644946     0.25700
C3124       C  0.28326141  0.67945448  0.62833298    -0.22500
C3125       C  0.26646062  0.67500986  0.60746203     0.20600
C3126       C  0.24253192  0.68826655  0.60513403     0.25600
C3127       C  0.23443543  0.70641344  0.62369540    -0.22400
C3128       C  0.25162632  0.71150515  0.64415202     0.20500
F3129       F  0.24499723  0.72881229  0.66245344    -0.12400
F3130       F  0.29124730  0.70387351  0.66674788    -0.14700
F3131       F  0.22722953  0.68305623  0.58452332    -0.14700
F3132       F  0.27325461  0.65803183  0.58891913    -0.12400
C3133       C  0.38869684  0.85616666  0.99788653     0.25700
C3134       C  0.36497616  0.85823011  0.98429034    -0.22500
C3135       C  0.34107960  0.85992530  0.99776275     0.20600
C3136       C  0.34097394  0.85998059  0.02450536     0.25600
C3137       C  0.36473932  0.85759294  0.03817140    -0.22400
C3138       C  0.38858113  0.85555440  0.02456332     0.20500
F3139       F  0.41187939  0.85328858  0.03708700    -0.12400
F3140       F  0.41196383  0.85389762  0.98527256    -0.14700
F3141       F  0.31757518  0.86160972  0.03699965    -0.14700
F3142       F  0.31788000  0.86191368  0.98501670    -0.12400
C3143       C  0.26556714  0.80633072  0.87906015     0.25700
C3144       C  0.26805303  0.83337845  0.87733935    -0.22500
C3145       C  0.24549516  0.84812818  0.87223916     0.20600
C3146       C  0.22074920  0.83610204  0.87033873     0.25600
C3147       C  0.21836930  0.80910369  0.87286464    -0.22400
C3148       C  0.24107613  0.79437662  0.87663169     0.20500
F3149       F  0.23940743  0.76843084  0.87935136    -0.12400
F3150       F  0.28699689  0.79125767  0.88319080    -0.14700
F3151       F  0.19907706  0.85082933  0.86615581    -0.14700
F3152       F  0.24720959  0.87412715  0.87015289    -0.12400
C3153       C  0.39318867  0.86594703  0.77401327     0.25700
C3154       C  0.36905908  0.86928708  0.78689441    -0.22500
C3155       C  0.34732504  0.87903349  0.77322436     0.20600
C3156       C  0.34977332  0.88554293  0.74740924     0.25600
C3157       C  0.37393540  0.88233269  0.73464449    -0.22400
C3158       C  0.39555132  0.87230904  0.74816739     0.20500
F3159       F  0.41923000  0.86916762  0.73649502    -0.12400
F3160       F  0.41482057  0.85723670  0.78656008    -0.14700
F3161       F  0.32818967  0.89410005  0.73467331    -0.14700
F3162       F  0.32347867  0.88183915  0.78467297    -0.12400
C3163       C  0.34663250  0.60016686  0.98978935     0.25700
C3164       C  0.36743697  0.61216316  0.97655536    -0.22500
C3165       C  0.38758428  0.62437622  0.99046663     0.20600
C3166       C  0.38729235  0.62393221  0.01711772     0.25600
C3167       C  0.36686241  0.61124704  0.03029899    -0.22400
C3168       C  0.34634515  0.59970634  0.01632044     0.20500
F3169       F  0.32571399  0.58811882  0.02825834    -0.12400
F3170       F  0.32628345  0.58898460  0.97710369    -0.14700
F3171       F  0.40747760  0.63522398  0.02992361    -0.14700
F3172       F  0.40807742  0.63598584  0.97835564    -0.12400
C3173       C  0.37418621  0.97094904  0.90316694     0.25700
C3174       C  0.36672032  0.95621534  0.88191201    -0.22500
C3175       C  0.36585803  0.96794175  0.85766772     0.20600
C3176       C  0.37157689  0.99421096  0.85491183     0.25600
C3177       C  0.37519879  0.50904147  0.87936224    -0.22400
C3178       C  0.37956315  0.99712480  0.90047052     0.20500
F3179       F  0.37180154  0.50984238  0.92524657    -0.12400
F3180       F  0.37563995  0.96011983  0.92673874    -0.14700
F3181       F  0.37811660  0.50577905  0.83370556    -0.14700
F3182       F  0.35999606  0.95386179  0.83659966    -0.12400
C3183       C  0.36150647  0.71955630  0.85510021     0.25700
C3184       C  0.35473991  0.70560284  0.87713481    -0.22500
C3185       C  0.35271424  0.71844288  0.90054387     0.20600
C3186       C  0.35759402  0.74479562  0.90212195     0.25600
C3187       C  0.36495074  0.75895903  0.88024053    -0.22400
C3188       C  0.36662277  0.74606555  0.85660871     0.20500
F3189       F  0.37308310  0.75904454  0.83497157    -0.12400
F3190       F  0.36456707  0.70725947  0.83243476    -0.14700
F3191       F  0.35580821  0.75625259  0.92534790    -0.14700
F3192       F  0.34681402  0.70515934  0.92216284    -0.12400
C3193       C  0.25972720  0.56444963  0.89900067     0.25700
C3194       C  0.27045231  0.57640336  0.87705841    -0.22500
C3195       C  0.25738842  0.57328239  0.85363907     0.20600
C3196       C  0.23405041  0.55890971  0.85222858     0.25600
C3197       C  0.22303937  0.54738658  0.87425174    -0.22400
C3198       C  0.23633416  0.55012572  0.89760064     0.20500
F3199       F  0.22611552  0.53994566  0.91935480    -0.12400
F3200       F  0.27167394  0.56697813  0.92205255    -0.14700
F3201       F  0.22221573  0.55619759  0.82914083    -0.14700
F3202       F  0.26764808  0.58338190  0.83186691    -0.12400
C3203       C  0.35083168  0.63189468  0.76741486     0.25700
C3204       C  0.36960099  0.61628666  0.77988065    -0.22500
C3205       C  0.39077559  0.60640481  0.76547281     0.20600
C3206       C  0.39335646  0.61234802  0.73954391     0.25600
C3207       C  0.37486097  0.62833070  0.72727584    -0.22400
C3208       C  0.35344963  0.63782118  0.74151269     0.20500
F3209       F  0.33469169  0.65266874  0.73036234    -0.12400
F3210       F  0.32987690  0.64175659  0.78021823    -0.14700
F3211       F  0.41441698  0.60283405  0.72664655    -0.14700
F3212       F  0.40940225  0.59127241  0.77644290    -0.12400
C3213       C  0.60902677  0.86139087  0.50425500     0.25700
C3214       C  0.63257682  0.85877557  0.51811856    -0.22500
C3215       C  0.65652159  0.85631047  0.50480301     0.20600
C3216       C  0.65689187  0.85625733  0.47807463     0.25600
C3217       C  0.63323999  0.85799240  0.46420677    -0.22400
C3218       C  0.60931297  0.86062758  0.47754413     0.20500
F3219       F  0.58618775  0.86269159  0.46468652    -0.12400
F3220       F  0.58560077  0.86369876  0.51658601    -0.14700
F3221       F  0.68028486  0.85354588  0.46577074    -0.14700
F3222       F  0.67961325  0.85416152  0.51770555    -0.12400
C3223       C  0.75866083  0.78896594  0.61661809     0.25700
C3224       C  0.78111124  0.80395903  0.62109400    -0.22500
C3225       C  0.77807642  0.83052524  0.62592165     0.20600
C3226       C  0.75303475  0.84197340  0.62567243     0.25600
C3227       C  0.73061208  0.82718069  0.61997838    -0.22400
C3228       C  0.73373194  0.80043221  0.61580797     0.20500
F3229       F  0.71256342  0.78519526  0.61091431    -0.12400
F3230       F  0.76095910  0.76339447  0.61180401    -0.14700
F3231       F  0.75088681  0.86763253  0.63005591    -0.14700
F3232       F  0.79947091  0.84544637  0.63085412    -0.12400
C3233       C  0.51901818  0.88504708  0.60736035     0.25700
C3234       C  0.53076271  0.86511729  0.62180996    -0.22500
C3235       C  0.51483337  0.85145744  0.63920113     0.20600
C3236       C  0.48826860  0.85798133  0.64258981     0.25600
C3237       C  0.47675058  0.87844015  0.62868902    -0.22400
C3238       C  0.49251276  0.89161970  0.61080510     0.20500
F3239       F  0.48238640  0.91097669  0.59641910    -0.12400
F3240       F  0.53317295  0.89864708  0.58993531    -0.14700
F3241       F  0.47391618  0.84404193  0.65959489    -0.14700
F3242       F  0.52488979  0.83177829  0.65319869    -0.12400
C3243       C  0.62632388  0.62848465  0.50966934     0.25700
C3244       C  0.63418848  0.60636872  0.52319247    -0.22500
C3245       C  0.64081917  0.58399735  0.50954283     0.20600
C3246       C  0.63939444  0.58362724  0.48300252     0.25600
C3247       C  0.63138897  0.60567688  0.46940625    -0.22400
C3248       C  0.62499026  0.62816566  0.48304052     0.20500
F3249       F  0.61790370  0.65007092  0.47066605    -0.12400
F3250       F  0.62035157  0.65062445  0.52214029    -0.14700
F3251       F  0.64541895  0.56137906  0.47073535    -0.14700
F3252       F  0.64799194  0.56208254  0.52186173    -0.12400
C3253       C  0.61720844  0.99353476  0.60493151     0.25700
C3254       C  0.62985572  0.50650664  0.62268446    -0.22500
C3255       C  0.63722165  0.99257425  0.64690709     0.20600
C3256       C  0.64227507  0.96615426  0.64402478     0.25600
C3257       C  0.63485967  0.95329992  0.62144830    -0.22400
C3258       C  0.62200362  0.96730600  0.60209254     0.20500
F3259       F  0.61450587  0.95572114  0.58002931    -0.12400
F3260       F  0.61625187  0.50700864  0.57881938    -0.14700
F3261       F  0.65399548  0.95312973  0.66341329    -0.14700
F3262       F  0.64498698  0.50452177  0.66598558    -0.12400
C3263       C  0.62917813  0.74181253  0.59793328     0.25700
C3264       C  0.62996223  0.75602580  0.62073549    -0.22500
C3265       C  0.63658979  0.74338478  0.64365841     0.20600
C3266       C  0.64260817  0.71701720  0.64361059     0.25600
C3267       C  0.64183845  0.70296896  0.62070857    -0.22400
C3268       C  0.63496317  0.71561983  0.59794126     0.20500
F3269       F  0.63358070  0.70245262  0.57558934    -0.12400
F3270       F  0.62248493  0.75327027  0.57553969    -0.14700
F3271       F  0.64804652  0.70500781  0.66602748    -0.14700
F3272       F  0.63788305  0.75663305  0.66594587    -0.12400
C3273       C  0.74755225  0.57610645  0.64871807     0.25700
C3274       C  0.73399264  0.57651795  0.62532230    -0.22500
C3275       C  0.74498307  0.56310770  0.60440989     0.20600
C3276       C  0.76901806  0.55004708  0.60672759     0.25600
C3277       C  0.78281341  0.55002972  0.62999756    -0.22400
C3278       C  0.77161579  0.56303182  0.65103762     0.20500
F3279       F  0.78387598  0.56293321  0.67406950    -0.12400
F3280       F  0.73712789  0.58761802  0.66966245    -0.14700
F3281       F  0.77925760  0.53830994  0.58580714    -0.14700
F3282       F  0.73266598  0.56293975  0.58140384    -0.12400
C3283       C  0.49523739  0.63632808  0.60424897     0.25700
C3284       C  0.48060784  0.63229667  0.62670137    -0.22500
C3285       C  0.49304831  0.62018773  0.64762047     0.20600
C3286       C  0.51944690  0.61251799  0.64617918     0.25600
C3287       C  0.53417690  0.61684326  0.62384040    -0.22400
C3288       C  0.52164648  0.62863581  0.60279735     0.20500
F3289       F  0.53483926  0.63240622  0.58053128    -0.12400
F3290       F  0.48376978  0.64689286  0.58331049    -0.14700
F3291       F  0.53076674  0.60159858  0.66701848    -0.14700
F3292       F  0.47976304  0.61603757  0.66976871    -0.12400
C3293       C  0.60353991  0.89234895  0.97656538     0.25700
C3294       C  0.62717902  0.89613652  0.96309818    -0.22500
C3295       C  0.65088251  0.89885102  0.97668008     0.20600
C3296       C  0.65089878  0.89794445  0.00338613     0.25600
C3297       C  0.62727897  0.89365053  0.01688271    -0.22400
C3298       C  0.60360898  0.89085607  0.00317932     0.20500
F3299       F  0.58034606  0.88741712  0.01556435    -0.12400
F3300       F  0.58036801  0.88959134  0.96389826    -0.14700
F3301       F  0.67405927  0.90094118  0.01600353    -0.14700
F3302       F  0.67390878  0.90308646  0.96411613    -0.12400
C3303       C  0.72818829  0.94842746  0.84912169     0.25700
C3304       C  0.72018714  0.92864759  0.86606859    -0.22500
C3305       C  0.73664697  0.92275528  0.88683400     0.20600
C3306       C  0.76001994  0.93642770  0.89086872     0.25600
C3307       C  0.76797436  0.95638087  0.87408513    -0.22400
C3308       C  0.75173358  0.96205191  0.85307330     0.20500
F3309       F  0.75876509  0.98047881  0.83596282    -0.12400
F3310       F  0.71328895  0.95471477  0.82852655    -0.14700
F3311       F  0.77485967  0.92983575  0.91142367    -0.14700
F3312       F  0.72998913  0.90402894  0.90376918    -0.12400
C3313       C  0.50456096  0.89918840  0.88431679     0.25700
C3314       C  0.52197531  0.88111139  0.87365757    -0.22500
C3315       C  0.51208267  0.85653120  0.86718312     0.20600
C3316       C  0.48540968  0.85044059  0.87078885     0.25600
C3317       C  0.46793869  0.86867003  0.88108171    -0.22400
C3318       C  0.47794208  0.89308310  0.88797027     0.20500
F3319       F  0.46179560  0.91156791  0.89747636    -0.12400
F3320       F  0.51308597  0.92311243  0.89070704    -0.14700
F3321       F  0.47680808  0.82650888  0.86453527    -0.14700
F3322       F  0.52831807  0.83802995  0.85786247    -0.12400
C3323       C  0.64736284  0.89188383  0.75242568     0.25700
C3324       C  0.62612670  0.88245059  0.76705122    -0.22500
C3325       C  0.60828393  0.86520950  0.75551137     0.20600
C3326       C  0.61139027  0.85781808  0.73006018     0.25600
C3327       C  0.63237564  0.86753033  0.71525247    -0.22400
C3328       C  0.65049585  0.88448716  0.72691514     0.20500
F3329       F  0.67135224  0.89411540  0.71371916    -0.12400
F3330       F  0.66551167  0.90796852  0.76284404    -0.14700
F3331       F  0.59346914  0.84129728  0.71995713    -0.14700
F3332       F  0.58745528  0.85555353  0.76872287    -0.12400
C3333       C  0.59990765  0.64168707  0.98137041     0.25700
C3334       C  0.62438558  0.64142256  0.96864938    -0.22500
C3335       C  0.64761504  0.63981147  0.98319381     0.20600
C3336       C  0.64641327  0.63939978  0.00991493     0.25600
C3337       C  0.62194462  0.63987867  0.02259555    -0.22400
C3338       C  0.59870349  0.64065923  0.00805786     0.20500
F3339       F  0.57481158  0.64154177  0.01971537    -0.12400
F3340       F  0.57705718  0.64282896  0.96794737    -0.14700
F3341       F  0.66921763  0.63843828  0.02342273    -0.14700
F3342       F  0.67155465  0.63963371  0.97159737    -0.12400
C3343       C  0.61938857  0.75983785  0.84635286     0.25700
C3344       C  0.62261644  0.74582556  0.86905577    -0.22500
C3345       C  0.63155949  0.75868794  0.89110986     0.20600
C3346       C  0.63664205  0.78526839  0.89047270     0.25600
C3347       C  0.63260296  0.79929074  0.86785503    -0.22400
C3348       C  0.62424790  0.78620974  0.84577342     0.20500
F3349       F  0.62041093  0.79912995  0.82352150    -0.12400
F3350       F  0.61098113  0.74805398  0.82470322    -0.14700
F3351       F  0.64439681  0.79741949  0.91213617    -0.14700
F3352       F  0.63592115  0.74546448  0.91307504    -0.12400
C3353       C  0.65092628  0.53360684  0.86699334     0.25700
C3354       C  0.62903753  0.54903902  0.87268569    -0.22500
C3355       C  0.60427913  0.53729312  0.87658580     0.20600
C3356       C  0.60127065  0.51071779  0.87419259     0.25600
C3357       C  0.61618886  0.99604446  0.86533090    -0.22400
C3358       C  0.64778371  0.50696075  0.86411558     0.20500
F3359       F  0.61497842  0.00046531  0.81966251    -0.12400
F3360       F  0.67498284  0.54438869  0.86306259    -0.14700
F3361       F  0.57708348  0.50003882  0.87758675    -0.14700
F3362       F  0.58279931  0.55169341  0.88245049    -0.12400
C3363       C  0.76795781  0.67589578  0.86458503     0.25700
C3364       C  0.77010104  0.70260745  0.86937044    -0.22500
C3365       C  0.74749751  0.71611548  0.87711028     0.20600
C3366       C  0.72308322  0.70348377  0.87858924     0.25600
C3367       C  0.72097342  0.67699509  0.87311571    -0.22400
C3368       C  0.74367300  0.66321718  0.86665478     0.20500
F3369       F  0.74211288  0.63773832  0.86113118    -0.12400
F3370       F  0.78948820  0.66190331  0.85802071    -0.14700
F3371       F  0.70131805  0.71719111  0.88509663    -0.14700
F3372       F  0.74880243  0.74168069  0.88230332    -0.12400
C3373       C  0.50799909  0.64386102  0.89496346     0.25700
C3374       C  0.52255548  0.63900998  0.87261243    -0.22500
C3375       C  0.50959600  0.62771889  0.85160069     0.20600
C3376       C  0.48297878  0.62086566  0.85308645     0.25600
C3377       C  0.46853078  0.62520397  0.87557140    -0.22400
C3378       C  0.48128070  0.63709283  0.89641130     0.20500
F3379       F  0.46809519  0.64157859  0.91853360    -0.12400
F3380       F  0.51983140  0.65415279  0.91584004    -0.14700
F3381       F  0.47119747  0.61057390  0.83218944    -0.14700
F3382       F  0.52266412  0.62340202  0.82938148    -0.12400
C3383       C  0.60837651  0.61753693  0.73234249     0.25700
C3384       C  0.63297603  0.61885243  0.71990491    -0.22500
C3385       C  0.65496206  0.62790210  0.73369891     0.20600
C3386       C  0.65243343  0.63525667  0.75929980     0.25600
C3387       C  0.62792882  0.63360358  0.77175095    -0.22400
C3388       C  0.60591626  0.62476170  0.75796556     0.20500
F3389       F  0.58178302  0.62365014  0.76914631    -0.12400
F3390       F  0.58643069  0.61000773  0.71953253    -0.14700
F3391       F  0.67421603  0.64311483  0.77216567    -0.14700
F3392       F  0.67912032  0.62916694  0.72259785    -0.12400
loop_ 
_geom_bond_atom_site_label_1 
_geom_bond_atom_site_label_2 
_geom_bond_distance 
_geom_bond_site_symmetry_2 
_ccdc_geom_bond_type 
Zn1           O5   1.934       .  S
Zn1           O6   2.024       .  S
Zn1          O10   1.967       .  S
Zn1          O17   1.977       .  S
Zn2           O5   1.921       .  S
Zn2           O7   1.951       .  S
Zn2           O9   1.981       .  S
Zn2          O13   1.972       .  S
Zn3           O5   1.971       .  S
Zn3           O8   2.082       .  S
Zn3          O11   2.070       .  S
Zn3          O14   2.029       .  S
Zn4           O5   1.957       .  S
Zn4          O12   2.029       .  S
Zn4          O15   2.063       .  S
Zn4          O16   2.046       .  S
O6           C18   1.271       .  A
O7           C19   1.266       .  A
O8           C20   1.281       .  A
O9           C18   1.268       .  A
O10          C20   1.266       .  A
O11          C19   1.281       .  A
O12          C21   1.276       .  A
O13          C22   1.268       .  A
O14          C21   1.276       .  A
O15          C22   1.279       .  A
O16          C23   1.278       .  A
O17          C23   1.271       .  A
C18        C1691   1.474       .  S
C19        C1658   1.471       .  S
C20        C1671   1.475       .  S
C21        C1638   1.479       .  S
C22        C1678   1.489       .  S
C23        C1648   1.473       .  S
Zn24         O28   1.950       .  S
Zn24         O29   2.029       .  S
Zn24         O33   1.984       .  S
Zn24         O40   1.992       .  S
Zn25         O28   1.929       .  S
Zn25         O30   1.959       .  S
Zn25         O32   2.000       .  S
Zn25         O36   2.006       .  S
Zn26         O28   1.975       .  S
Zn26         O31   2.057       .  S
Zn26         O34   2.055       .  S
Zn26         O37   2.014       .  S
Zn27         O28   1.955       .  S
Zn27         O35   2.011       .  S
Zn27         O38   2.047       .  S
Zn27         O39   2.028       .  S
O29          C41   1.275       .  A
O30          C42   1.268       .  A
O31          C43   1.279       .  A
O32          C41   1.271       .  A
O33          C43   1.268       .  A
O34          C42   1.279       .  A
O35          C44   1.273       .  A
O36          C45   1.271       .  A
O37          C44   1.272       .  A
O38          C45   1.277       .  A
O39          C46   1.277       .  A
O40          C46   1.272       .  A
C41        C1628   1.491       .  S
C42        C1651   1.473       .  S
C43        C1608   1.494       .  S
C44        C1598   1.471       .  S
C45        C1618   1.496       .  S
C46        C1661   1.472       .  S
Zn47         O51   1.928       .  S
Zn47         O52   1.966       .  S
Zn47         O56   1.982       .  S
Zn47         O63   1.993       .  S
Zn48         O51   1.965       .  S
Zn48         O53   2.014       .  S
Zn48         O55   2.060       .  S
Zn48         O59   2.065       .  S
Zn49         O51   1.970       .  S
Zn49         O54   2.054       .  S
Zn49         O57   2.008       .  S
Zn49         O60   2.053       .  S
Zn50         O51   1.930       .  S
Zn50         O58   1.961       .  S
Zn50         O61   1.974       .  S
Zn50         O62   1.995       .  S
O52          C64   1.268       .  A
O53          C65   1.275       .  A
O54          C66   1.279       .  A
O55          C64   1.278       .  A
O56          C66   1.269       .  A
O57          C65   1.272       .  A
O58          C67   1.268       .  A
O59          C68   1.279       .  A
O60          C67   1.278       .  A
O61          C68   1.268       .  A
O62          C69   1.269       .  A
O63          C69   1.270       .  A
C64        C1558   1.471       .  S
C65        C1688   1.479       .  S
C66        C1578   1.490       .  S
C67        C1571   1.471       .  S
C68        C1591   1.489       .  S
C69        C1548   1.478       .  S
Zn70         O74   1.928       .  S
Zn70         O75   2.025       .  S
Zn70         O79   1.985       .  S
Zn70         O86   1.982       .  S
Zn71         O74   1.929       .  S
Zn71         O76   1.988       .  S
Zn71         O78   2.022       .  S
Zn71         O82   1.972       .  S
Zn72         O74   1.955       .  S
Zn72         O77   2.045       .  S
Zn72         O80   2.044       .  S
Zn72         O83   2.020       .  S
Zn73         O74   1.968       .  S
Zn73         O81   2.006       .  S
Zn73         O84   2.039       .  S
Zn73         O85   2.059       .  S
O75          C87   1.274       .  A
O76          C88   1.270       .  A
O77          C89   1.278       .  A
O78          C87   1.273       .  A
O79          C89   1.272       .  A
O80          C88   1.278       .  A
O81          C90   1.271       .  A
O82          C91   1.270       .  A
O83          C90   1.274       .  A
O84          C91   1.277       .  A
O85          C92   1.279       .  A
O86          C92   1.270       .  A
C87        C1518   1.482       .  S
C88        C1538   1.491       .  S
C89        C1568   1.479       .  S
C90        C1631   1.489       .  S
C91        C1561   1.473       .  S
C92        C1531   1.482       .  S
Zn93         O97   1.968       .  S
Zn93         O98   2.062       .  S
Zn93        O102   2.010       .  S
Zn93        O109   2.061       .  S
Zn94         O97   1.930       .  S
Zn94         O99   1.950       .  S
Zn94        O101   1.972       .  S
Zn94        O105   1.984       .  S
Zn95         O97   1.973       .  S
Zn95        O100   2.007       .  S
Zn95        O103   2.067       .  S
Zn95        O106   2.083       .  S
Zn96         O97   1.920       .  S
Zn96        O104   1.973       .  S
Zn96        O107   1.973       .  S
Zn96        O108   1.951       .  S
O98         C110   1.278       .  A
O99         C111   1.266       .  A
O100        C112   1.274       .  A
O101        C110   1.267       .  A
O102        C112   1.275       .  A
O103        C111   1.280       .  A
O104        C113   1.267       .  A
O105        C114   1.269       .  A
O106        C113   1.282       .  A
O107        C114   1.266       .  A
O108        C115   1.266       .  A
O109        C115   1.278       .  A
C110       C1681   1.489       .  S
C111       C1488   1.474       .  S
C112       C1508   1.482       .  S
C113       C1498   1.496       .  S
C114       C1468   1.470       .  S
C115       C1481   1.472       .  S
Zn116       O120   1.973       .  S
Zn116       O121   1.997       .  S
Zn116       O125   2.044       .  S
Zn116       O132   2.069       .  S
Zn117       O120   1.959       .  S
Zn117       O122   2.050       .  S
Zn117       O124   2.019       .  S
Zn117       O128   2.042       .  S
Zn118       O120   1.937       .  S
Zn118       O123   1.982       .  S
Zn118       O126   2.003       .  S
Zn118       O129   2.023       .  S
Zn119       O120   1.932       .  S
Zn119       O127   2.020       .  S
Zn119       O130   1.987       .  S
Zn119       O131   1.976       .  S
O121        C133   1.270       .  A
O122        C134   1.278       .  A
O123        C135   1.271       .  A
O124        C133   1.274       .  A
O125        C135   1.278       .  A
O126        C134   1.272       .  A
O127        C136   1.273       .  A
O128        C137   1.277       .  A
O129        C136   1.274       .  A
O130        C137   1.272       .  A
O131        C138   1.269       .  A
O132        C138   1.279       .  A
C133       C1458   1.488       .  S
C134       C1621   1.495       .  S
C135       C1478   1.470       .  S
C136       C1438   1.477       .  S
C137       C1491   1.476       .  S
C138       C1448   1.485       .  S
Zn139       O143   1.938       .  S
Zn139       O144   2.010       .  S
Zn139       O148   1.963       .  S
Zn139       O155   1.976       .  S
Zn140       O143   1.925       .  S
Zn140       O145   1.947       .  S
Zn140       O147   1.981       .  S
Zn140       O151   1.977       .  S
Zn141       O143   1.979       .  S
Zn141       O146   2.087       .  S
Zn141       O149   2.086       .  S
Zn141       O152   2.031       .  S
Zn142       O143   1.960       .  S
Zn142       O150   2.031       .  S
Zn142       O153   2.064       .  S
Zn142       O154   2.042       .  S
O144        C156   1.270       .  A
O145        C157   1.266       .  A
O146        C158   1.282       .  A
O147        C156   1.267       .  A
O148        C158   1.267       .  A
O149        C157   1.282       .  A
O150        C159   1.278       .  A
O151        C160   1.268       .  A
O152        C159   1.275       .  A
O153        C160   1.280       .  A
O154        C161   1.278       .  A
O155        C161   1.270       .  A
C156       C1511   1.484       .  S
C157       C1418   1.477       .  S
C158       C1428   1.488       .  S
C159       C1398   1.497       .  S
C160       C1588   1.488       .  S
C161       C1411   1.482       .  S
Zn162       O166   1.942       .  S
Zn162       O167   2.003       .  S
Zn162       O171   2.023       .  S
Zn162       O178   1.978       .  S
Zn163       O166   1.952       .  S
Zn163       O168   2.042       .  S
Zn163       O170   2.035       .  S
Zn163       O174   2.009       .  S
Zn164       O166   1.932       .  S
Zn164       O169   1.995       .  S
Zn164       O172   1.995       .  S
Zn164       O175   1.965       .  S
Zn165       O166   1.971       .  S
Zn165       O173   2.049       .  S
Zn165       O176   2.007       .  S
Zn165       O177   2.056       .  S
O167        C179   1.274       .  A
O168        C180   1.277       .  A
O169        C181   1.270       .  A
O170        C179   1.277       .  A
O171        C181   1.274       .  A
O172        C180   1.271       .  A
O173        C182   1.277       .  A
O174        C183   1.273       .  A
O175        C182   1.267       .  A
O176        C183   1.272       .  A
O177        C184   1.279       .  A
O178        C184   1.268       .  A
C179       C1421   1.493       .  S
C180       C1541   1.492       .  S
C181       C1461   1.487       .  S
C182       C1408   1.465       .  S
C183       C1378   1.478       .  S
C184       C1388   1.490       .  S
Zn185      O1885   1.927       .  S
Zn185       O194   1.964       .  S
Zn185       O201   1.943       .  S
Zn185      O1886   1.983       .  S
Zn186       O189   1.945       .  S
Zn186       O191   1.997       .  S
Zn186       O193   2.048       .  S
Zn186       O197   1.984       .  S
Zn187       O189   1.954       .  S
Zn187       O192   2.050       .  S
Zn187       O195   2.021       .  S
Zn187       O198   2.028       .  S
Zn188       O189   1.972       .  S
Zn188       O196   2.035       .  S
Zn188       O199   2.055       .  S
Zn188      O1896   2.052   1_545  S
O189      Zn1881   1.917       .  S
O190      Zn1881   1.985       .  S
O190        C202   1.267       .  A
O191        C203   1.274       .  A
O192        C204   1.277       .  A
O193        C202   1.275       .  A
O194       C1900   1.266       .  A
O195        C203   1.277       .  A
O196        C205   1.275       .  A
O197        C206   1.270       .  A
O198        C205   1.275       .  A
O199        C206   1.279       .  A
O200      Zn1884   2.063       .  S
O200        C207   1.280       .  A
O201        C207   1.264       .  A
C202       C1368   1.493       .  S
C203       C1348   1.487       .  S
C204       O1890   1.267       .  A
C204       C1358   1.487       .  S
C205       C1328   1.496       .  S
C206       C1581   1.491       .  S
C207       C1338   1.481       .  S
Zn208       O212   1.922       .  S
Zn208       O213   1.967       .  S
Zn208       O217   1.983       .  S
Zn208       O224   2.003       .  S
Zn209       O212   1.960       .  S
Zn209       O214   2.037       .  S
Zn209       O216   2.048       .  S
Zn209       O220   2.053       .  S
Zn210       O212   1.962       .  S
Zn210       O215   2.051       .  S
Zn210       O218   1.995       .  S
Zn210       O221   2.027       .  S
Zn211       O212   1.934       .  S
Zn211       O219   1.976       .  S
Zn211       O222   1.986       .  S
Zn211       O223   2.017       .  S
O213        C225   1.268       .  A
O214        C226   1.277       .  A
O215        C227   1.277       .  A
O216        C225   1.279       .  A
O217        C227   1.268       .  A
O218        C226   1.271       .  A
O219        C228   1.269       .  A
O220        C229   1.278       .  A
O221        C228   1.276       .  A
O222        C229   1.270       .  A
O223        C230   1.273       .  A
O224        C230   1.272       .  A
C225       C1341   1.487       .  S
C226       C1318   1.490       .  S
C227       C1528   1.478       .  S
C228       C1351   1.479       .  S
C229       C1308   1.477       .  S
C230       C1301   1.475       .  S
Zn231       O235   1.952       .  S
Zn231       O236   2.001       .  S
Zn231       O240   1.994       .  S
Zn231       O247   2.041       .  S
Zn232       O235   1.974       .  S
Zn232       O237   2.035       .  S
Zn232       O239   2.060       .  S
Zn232       O243   2.063       .  S
Zn233       O235   1.951       .  S
Zn233       O238   2.019       .  S
Zn233       O241   2.019       .  S
Zn233       O244   2.048       .  S
Zn234       O235   1.923       .  S
Zn234       O242   1.991       .  S
Zn234       O245   1.947       .  S
Zn234       O246   1.981       .  S
O236        C248   1.272       .  A
O237        C249   1.275       .  A
O238        C250   1.276       .  A
O239        C248   1.279       .  A
O240        C250   1.272       .  A
O241        C249   1.274       .  A
O242        C251   1.269       .  A
O243        C252   1.281       .  A
O244        C251   1.277       .  A
O245        C252   1.267       .  A
O246        C253   1.268       .  A
O247        C253   1.276       .  A
C248       C1668   1.493       .  S
C249       C1258   1.481       .  S
C250       C1281   1.483       .  S
C251       C1291   1.492       .  S
C252       C1271   1.473       .  S
C253       C1321   1.490       .  S
Zn254      O1954   1.964   1_545  S
Zn254       O270   2.052       .  S
Zn254      O1955   2.070   1_545  S
Zn254      O1959   2.005       .  S
Zn255       O258   1.921       .  S
Zn255       O260   1.952       .  S
Zn255       O262   1.960       .  S
Zn255       O266   1.973       .  S
Zn256       O258   1.956       .  S
Zn256       O261   2.040       .  S
Zn256       O264   2.063       .  S
Zn256       O267   2.071       .  S
Zn257      O1954   1.927   1_545  S
Zn257       O265   1.977       .  S
Zn257       O269   1.961       .  S
Zn257      O1964   2.002       .  S
O258      Zn1950   1.963       .  S
O258      Zn1953   1.925       .  S
O259      Zn1950   2.077       .  S
O259        C271   1.281       .  A
O260        C272   1.266       .  A
O261        C273   1.277       .  A
O262        C271   1.265       .  A
O263      Zn1950   2.004       .  S
O263        C273   1.272       .  A
O264        C272   1.281       .  A
O265       C1970   1.268   1_545  A
O266        C275   1.267       .  A
O267        C274   1.281       .  A
O268      Zn1953   2.000       .  S
O268        C275   1.270       .  A
O269        C276   1.268       .  A
O270        C276   1.280       .  A
C271       C1611   1.495       .  S
C272       C1268   1.487       .  S
C273       C1371   1.494       .  S
C274       O1961   1.268       .  A
C274       C1248   1.496       .  S
C275       C1238   1.472       .  S
C276       C1278   1.486       .  S
Zn277      O1977   1.924       .  S
Zn277       O286   1.965       .  S
Zn277       O293   1.926       .  S
Zn277      O1978   1.988       .  S
Zn278       O281   1.938       .  S
Zn278       O283   1.984       .  S
Zn278       O285   2.021       .  S
Zn278       O289   1.971       .  S
Zn279       O281   1.958       .  S
Zn279       O284   2.060       .  S
Zn279       O287   2.037       .  S
Zn279       O290   2.023       .  S
Zn280       O281   1.977       .  S
Zn280       O288   2.044       .  S
Zn280       O291   2.080       .  S
Zn280      O1988   2.079   1_545  S
O281      Zn1973   1.923   1_545  S
O282      Zn1973   1.991   1_545  S
O282        C294   1.268       .  A
O283        C295   1.271       .  A
O284        C296   1.278       .  A
O285        C294   1.272       .  A
O286       C1992   1.266       .  A
O287        C295   1.278       .  A
O288        C297   1.277       .  A
O289        C298   1.267       .  A
O290        C297   1.275       .  A
O291        C298   1.282       .  A
O292      Zn1976   2.083       .  S
O292        C299   1.283       .  A
O293        C299   1.262       .  A
C294       C1228   1.485       .  S
C295       C1218   1.488       .  S
C296       O1982   1.267       .  A
C296       C1251   1.488       .  S
C297       C1201   1.497       .  S
C298       C1501   1.497       .  S
C299       C1208   1.488       .  S
Zn300       O304   1.961       .  S
Zn300       O305   2.068       .  S
Zn300       O309   2.013       .  S
Zn300       O316   2.055       .  S
Zn301       O304   1.924       .  S
Zn301       O306   1.949       .  S
Zn301       O308   1.972       .  S
Zn301       O312   2.000       .  S
Zn302       O304   1.959       .  S
Zn302       O307   2.060       .  S
Zn302       O310   2.066       .  S
Zn302       O313   2.064       .  S
Zn303       O304   1.928       .  S
Zn303       O311   1.986       .  S
Zn303       O314   2.008       .  S
Zn303       O315   1.955       .  S
O305        C317   1.280       .  A
O306        C318   1.266       .  A
O307        C319   1.279       .  A
O308        C317   1.267       .  A
O309        C319   1.274       .  A
O310        C318   1.281       .  A
O311        C320   1.270       .  A
O312        C321   1.270       .  A
O313        C320   1.281       .  A
O314        C321   1.270       .  A
O315        C322   1.268       .  A
O316        C322   1.280       .  A
C317       C1451   1.479       .  S
C318       C1211   1.477       .  S
C319       C1188   1.492       .  S
C320       C1288   1.495       .  S
C321       C1178   1.475       .  S
C322       C1221   1.477       .  S
Zn323       O327   1.933       .  S
Zn323       O328   2.022       .  S
Zn323       O332   1.956       .  S
Zn323       O339   1.995       .  S
Zn324       O327   1.938       .  S
Zn324       O329   1.982       .  S
Zn324       O331   2.005       .  S
Zn324       O335   1.959       .  S
Zn325       O327   1.968       .  S
Zn325       O330   2.060       .  S
Zn325       O333   2.072       .  S
Zn325       O336   2.030       .  S
Zn326       O327   1.970       .  S
Zn326       O334   2.042       .  S
Zn326       O337   2.054       .  S
Zn326       O338   2.044       .  S
O328        C340   1.272       .  A
O329        C341   1.269       .  A
O330        C342   1.279       .  A
O331        C340   1.270       .  A
O332        C342   1.268       .  A
O333        C341   1.282       .  A
O334        C343   1.276       .  A
O335        C344   1.268       .  A
O336        C343   1.275       .  A
O337        C344   1.279       .  A
O338        C345   1.277       .  A
O339        C345   1.271       .  A
C340       C1148   1.474       .  S
C341       C1431   1.490       .  S
C342       C1158   1.472       .  S
C343       C1191   1.490       .  S
C344       C1168   1.472       .  S
C345       C1311   1.476       .  S
Zn346      O2046   1.958   1_545  S
Zn346       O362   2.051       .  S
Zn346      O2047   2.065   1_545  S
Zn346      O2051   2.000   1_545  S
Zn347       O350   1.921       .  S
Zn347       O352   1.972       .  S
Zn347       O354   1.965       .  S
Zn347       O358   1.988       .  S
Zn348       O350   1.961       .  S
Zn348       O353   2.018       .  S
Zn348       O356   2.057       .  S
Zn348       O359   2.061       .  S
Zn349      O2046   1.921   1_545  S
Zn349       O357   1.967       .  S
Zn349       O361   1.961       .  S
Zn349      O2056   2.000       .  S
O350      Zn2042   1.963       .  S
O350      Zn2045   1.920       .  S
O351      Zn2042   2.071       .  S
O351        C363   1.281       .  A
O352        C364   1.269       .  A
O353        C365   1.275       .  A
O354        C363   1.267       .  A
O355      Zn2042   2.006       .  S
O355        C365   1.273       .  A
O356        C364   1.278       .  A
O357       C2062   1.267   1_545  A
O358        C367   1.269       .  A
O359        C366   1.279       .  A
O360      Zn2045   1.999       .  S
O360        C367   1.270       .  A
O361        C368   1.267       .  A
O362        C368   1.279       .  A
C363       C1391   1.490       .  S
C364       C1161   1.480       .  S
C365       C1231   1.486       .  S
C366       O2053   1.265       .  A
C366       C1361   1.487       .  S
C367       C1141   1.466       .  S
C368       C1171   1.472       .  S
Zn369       O373   1.926       .  S
Zn369       O374   1.968       .  S
Zn369       O378   1.978       .  S
Zn369       O385   1.961       .  S
Zn370       O373   1.937       .  S
Zn370       O375   1.977       .  S
Zn370       O377   2.003       .  S
Zn370       O381   1.998       .  S
Zn371       O373   1.969       .  S
Zn371       O376   2.081       .  S
Zn371       O379   2.054       .  S
Zn371       O382   2.012       .  S
Zn372       O373   1.958       .  S
Zn372       O380   2.022       .  S
Zn372       O383   2.066       .  S
Zn372       O384   2.054       .  S
O374        C386   1.269       .  A
O375        C387   1.270       .  A
O376        C388   1.281       .  A
O377        C386   1.269       .  A
O378        C388   1.268       .  A
O379        C387   1.280       .  A
O380        C389   1.276       .  A
O381        C390   1.271       .  A
O382        C389   1.273       .  A
O383        C390   1.279       .  A
O384        C391   1.279       .  A
O385        C391   1.267       .  A
C386       C1471   1.473       .  S
C387       C1098   1.478       .  S
C388       C1111   1.494       .  S
C389       C1128   1.491       .  S
C390       C1118   1.492       .  S
C391       C1091   1.486       .  S
Zn392       O396   1.929       .  S
Zn392       O397   1.951       .  S
Zn392       O401   1.991       .  S
Zn392       O408   1.987       .  S
Zn393       O396   1.973       .  S
Zn393       O398   2.025       .  S
Zn393       O400   2.067       .  S
Zn393       O404   2.064       .  S
Zn394       O396   1.947       .  S
Zn394       O399   2.044       .  S
Zn394       O402   2.016       .  S
Zn394       O405   2.028       .  S
Zn395       O396   1.951       .  S
Zn395       O403   2.004       .  S
Zn395       O406   2.001       .  S
Zn395       O407   2.048       .  S
O397        C409   1.267       .  A
O398        C410   1.274       .  A
O399        C411   1.277       .  A
O400        C409   1.282       .  A
O401        C411   1.269       .  A
O402        C410   1.273       .  A
O403        C412   1.274       .  A
O404        C413   1.279       .  A
O405        C412   1.277       .  A
O406        C413   1.272       .  A
O407        C414   1.277       .  A
O408        C414   1.269       .  A
C409       C1088   1.474       .  S
C410       C1441   1.482       .  S
C411       C1068   1.491       .  S
C412       C1101   1.491       .  S
C413       C1061   1.496       .  S
C414       C1078   1.490       .  S
Zn415       O419   1.950       .  S
Zn415       O420   1.978       .  S
Zn415       O424   2.034       .  S
Zn415       O431   1.990       .  S
Zn416       O419   1.982       .  S
Zn416       O421   2.066       .  S
Zn416       O423   2.073       .  S
Zn416       O427   2.025       .  S
Zn417       O419   1.927       .  S
Zn417       O422   1.987       .  S
Zn417       O425   1.945       .  S
Zn417       O428   1.987       .  S
Zn418       O419   1.961       .  S
Zn418       O426   2.069       .  S
Zn418       O429   2.034       .  S
Zn418       O430   2.035       .  S
O420        C432   1.269       .  A
O421        C433   1.281       .  A
O422        C434   1.268       .  A
O423        C432   1.279       .  A
O424        C434   1.273       .  A
O425        C433   1.266       .  A
O426        C435   1.280       .  A
O427        C436   1.276       .  A
O428        C435   1.269       .  A
O429        C436   1.274       .  A
O430        C437   1.278       .  A
O431        C437   1.272       .  A
C432       C1041   1.486       .  S
C433       C1028   1.476       .  S
C434       C1131   1.487       .  S
C435       C1048   1.489       .  S
C436       C1401   1.497       .  S
C437       C1018   1.489       .  S
Zn438       O442   1.927       .  S
Zn438       O443   1.981       .  S
Zn438       O447   1.977       .  S
Zn438       O454   2.010       .  S
Zn439       O442   1.957       .  S
Zn439       O444   1.987       .  S
Zn439       O446   2.043       .  S
Zn439       O450   2.041       .  S
Zn440       O442   1.955       .  S
Zn440       O445   2.068       .  S
Zn440       O448   2.046       .  S
Zn440       O451   2.070       .  S
Zn441       O442   1.920       .  S
Zn441       O449   1.976       .  S
Zn441       O452   1.978       .  S
Zn441       O453   2.007       .  S
O443        C455   1.268       .  A
O444        C456   1.270       .  A
O445        C457   1.282       .  A
O446        C455   1.277       .  A
O447        C457   1.270       .  A
O448        C456   1.278       .  A
O449        C458   1.269       .  A
O450        C459   1.278       .  A
O451        C458   1.281       .  A
O452        C459   1.270       .  A
O453        C460   1.272       .  A
O454        C460   1.273       .  A
C455       C1001   1.474       .  S
C456       C1081   1.491       .  S
C457       C1031   1.494       .  S
C458       C1008   1.493       .  S
C459       C1021   1.485       .  S
C460       C1381   1.469       .  S
Zn461       O465   1.939       .  S
Zn461       O466   2.002       .  S
Zn461       O470   1.971       .  S
Zn461       O477   2.036       .  S
Zn462       O465   1.965       .  S
Zn462       O467   2.054       .  S
Zn462       O469   2.064       .  S
Zn462       O473   2.055       .  S
Zn463       O465   1.970       .  S
Zn463       O468   2.053       .  S
Zn463       O471   2.021       .  S
Zn463       O474   2.087       .  S
Zn464       O465   1.925       .  S
Zn464       O472   1.980       .  S
Zn464       O475   1.974       .  S
Zn464       O476   2.011       .  S
O466        C478   1.271       .  A
O467        C479   1.278       .  A
O468        C480   1.280       .  A
O469        C478   1.279       .  A
O470        C480   1.270       .  A
O471        C479   1.274       .  A
O472        C481   1.269       .  A
O473        C482   1.279       .  A
O474        C481   1.282       .  A
O475        C482   1.269       .  A
O476        C483   1.272       .  A
O477        C483   1.275       .  A
C478       C1121   1.478       .  S
C479        C988   1.482       .  S
C480        C971   1.478       .  S
C481        C978   1.487       .  S
C482        C958   1.471       .  S
C483       C1641   1.485       .  S
Zn484       O488   1.958       .  S
Zn484       O489   1.998       .  S
Zn484       O493   2.056       .  S
Zn484       O500   2.037       .  S
Zn485       O488   1.951       .  S
Zn485       O490   2.043       .  S
Zn485       O492   2.022       .  S
Zn485       O496   2.046       .  S
Zn486       O488   1.920       .  S
Zn486       O491   1.988       .  S
Zn486       O494   1.983       .  S
Zn486       O497   2.010       .  S
Zn487       O488   1.929       .  S
Zn487       O495   2.020       .  S
Zn487       O498   1.992       .  S
Zn487       O499   1.991       .  S
O489        C501   1.270       .  A
O490        C502   1.276       .  A
O491        C503   1.270       .  A
O492        C501   1.275       .  A
O493        C503   1.279       .  A
O494        C502   1.270       .  A
O495        C504   1.274       .  A
O496        C505   1.278       .  A
O497        C504   1.273       .  A
O498        C505   1.272       .  A
O499        C506   1.271       .  A
O500        C506   1.278       .  A
C501        C951   1.486       .  S
C502        C968   1.470       .  S
C503        C938   1.480       .  S
C504       C1601   1.481       .  S
C505       C1071   1.486       .  S
C506        C961   1.480       .  S
Zn507       O511   1.973       .  S
Zn507       O512   2.050       .  S
Zn507       O516   2.080       .  S
Zn507       O523   2.066       .  S
Zn508       O511   1.969       .  S
Zn508       O513   2.050       .  S
Zn508       O515   2.022       .  S
Zn508       O519   2.086       .  S
Zn509       O511   1.937       .  S
Zn509       O514   1.979       .  S
Zn509       O517   1.958       .  S
Zn509       O520   2.011       .  S
Zn510       O511   1.925       .  S
Zn510       O518   1.972       .  S
Zn510       O521   1.960       .  S
Zn510       O522   1.950       .  S
O512        C524   1.278       .  A
O513        C525   1.279       .  A
O514        C526   1.269       .  A
O515        C524   1.275       .  A
O516        C526   1.282       .  A
O517        C525   1.268       .  A
O518        C527   1.267       .  A
O519        C528   1.282       .  A
O520        C527   1.270       .  A
O521        C528   1.265       .  A
O522        C529   1.265       .  A
O523        C529   1.281       .  A
C524        C991   1.484       .  S
C525        C918   1.478       .  S
C526       C1051   1.490       .  S
C527       C1551   1.479       .  S
C528        C928   1.490       .  S
C529        C911   1.485       .  S
Zn530       O534   1.925       .  S
Zn530       O535   1.944       .  S
Zn530       O539   1.983       .  S
Zn530       O546   1.975       .  S
Zn531       O534   1.973       .  S
Zn531       O536   2.031       .  S
Zn531       O538   2.051       .  S
Zn531       O542   2.072       .  S
Zn532       O534   1.956       .  S
Zn532       O537   2.060       .  S
Zn532       O540   2.024       .  S
Zn532       O543   2.034       .  S
Zn533       O534   1.947       .  S
Zn533       O541   1.980       .  S
Zn533       O544   1.999       .  S
Zn533       O545   2.039       .  S
O535        C547   1.265       .  A
O536        C548   1.275       .  A
O537        C549   1.278       .  A
O538        C547   1.280       .  A
O539        C549   1.268       .  A
O540        C548   1.275       .  A
O541        C550   1.271       .  A
O542        C551   1.279       .  A
O543        C550   1.279       .  A
O544        C551   1.270       .  A
O545        C552   1.275       .  A
O546        C552   1.268       .  A
C547        C908   1.470       .  S
C548       C1521   1.480       .  S
C549       C1011   1.494       .  S
C550        C921   1.486       .  S
C551        C898   1.488       .  S
C552        C948   1.487       .  S
Zn553      O2253   1.929       .  S
Zn553       O562   1.953       .  S
Zn553       O569   1.980       .  S
Zn553      O2254   2.000       .  S
Zn554       O557   1.936       .  S
Zn554       O559   1.978       .  S
Zn554       O561   2.006       .  S
Zn554       O565   1.985       .  S
Zn555       O557   1.969       .  S
Zn555       O563   2.071       .  S
Zn555       O566   2.041       .  S
Zn555      O2256   2.068   1_545  S
Zn556       O557   1.959       .  S
Zn556       O564   2.029       .  S
Zn556       O567   2.060       .  S
Zn556       O568   2.072       .  S
O557      Zn2249   1.926   1_545  S
O558      Zn2249   1.999       .  S
O558        C570   1.269   1_565  A
O559        C571   1.268       .  A
O560      Zn2251   2.078       .  S
O560        C572   1.281       .  A
O561        C570   1.272       .  A
O562        C572   1.266       .  A
O563        C571   1.281       .  A
O564        C573   1.277       .  A
O565        C574   1.271       .  A
O566        C573   1.278       .  A
O567        C574   1.279       .  A
O568        C575   1.281       .  A
O569       C2271   1.268       .  A
C570        C888   1.486       .  S
C571        C931   1.491       .  S
C572        C858   1.467       .  S
C573       C1331   1.497       .  S
C574        C868   1.483       .  S
C575       O2265   1.267   1_545  A
C575        C881   1.491       .  S
Zn576       O580   1.933       .  S
Zn576       O581   2.004       .  S
Zn576       O585   1.973       .  S
Zn576       O592   1.997       .  S
Zn577       O580   1.947       .  S
Zn577       O582   1.984       .  S
Zn577       O584   2.037       .  S
Zn577       O588   2.005       .  S
Zn578       O580   1.981       .  S
Zn578       O583   2.073       .  S
Zn578       O586   2.080       .  S
Zn578       O589   2.030       .  S
Zn579       O580   1.951       .  S
Zn579       O587   1.995       .  S
Zn579       O590   2.021       .  S
Zn579       O591   2.029       .  S
O581        C593   1.272       .  A
O582        C594   1.269       .  A
O583        C595   1.281       .  A
O584        C593   1.276       .  A
O585        C595   1.269       .  A
O586        C594   1.281       .  A
O587        C596   1.271       .  A
O588        C597   1.274       .  A
O589        C596   1.275       .  A
O590        C597   1.275       .  A
O591        C598   1.275       .  A
O592        C598   1.271       .  A
C593        C851   1.481       .  S
C594        C901   1.485       .  S
C595        C871   1.480       .  S
C596       C1298   1.475       .  S
C597        C861   1.485       .  S
C598        C838   1.483       .  S
Zn599       O603   1.937       .  S
Zn599       O604   1.985       .  S
Zn599       O608   1.990       .  S
Zn599       O615   2.033       .  S
Zn600       O603   1.979       .  S
Zn600       O605   2.012       .  S
Zn600       O607   2.082       .  S
Zn600       O611   2.056       .  S
Zn601       O603   1.962       .  S
Zn601       O606   2.052       .  S
Zn601       O609   2.027       .  S
Zn601       O612   2.059       .  S
Zn602       O603   1.932       .  S
Zn602       O610   1.989       .  S
Zn602       O613   1.975       .  S
Zn602       O614   2.020       .  S
O604        C616   1.269       .  A
O605        C617   1.272       .  A
O606        C618   1.280       .  A
O607        C616   1.281       .  A
O608        C618   1.272       .  A
O609        C617   1.275       .  A
O610        C619   1.270       .  A
O611        C620   1.280       .  A
O612        C619   1.279       .  A
O613        C620   1.270       .  A
O614        C621   1.273       .  A
O615        C621   1.275       .  A
C616        C981   1.488       .  S
C617        C848   1.488       .  S
C618        C818   1.486       .  S
C619        C828   1.496       .  S
C620        C808   1.486       .  S
C621       C1261   1.482       .  S
Zn622       O626   1.921       .  S
Zn622       O627   1.966       .  S
Zn622       O631   1.967       .  S
Zn622       O638   1.979       .  S
Zn623      O2322   1.959       .  S
Zn623       O634   2.071   1_565  S
Zn623      O2324   2.010       .  S
Zn623      O2326   2.082       .  S
Zn624       O626   1.955       .  S
Zn624       O629   2.060       .  S
Zn624       O632   2.007       .  S
Zn624       O635   2.063       .  S
Zn625      O2322   1.920   1_545  S
Zn625       O633   1.978       .  S
Zn625       O636   1.972       .  S
Zn625      O2333   2.004       .  S
O626      Zn2319   1.973       .  S
O626      Zn2321   1.926       .  S
O627        C639   1.267       .  A
O628      Zn2319   2.018       .  S
O628        C640   1.275       .  A
O629        C641   1.278       .  A
O630      Zn2319   2.087       .  S
O630        C639   1.282       .  A
O631        C641   1.267       .  A
O632        C640   1.275       .  A
O633       C2338   1.269   1_545  A
O634        C643   1.281       .  A
O635        C642   1.279       .  A
O636        C643   1.269       .  A
O637      Zn2321   1.989       .  S
O637        C644   1.269       .  A
O638        C644   1.268       .  A
C639        C941   1.488       .  S
C640        C891   1.485       .  S
C641        C811   1.470       .  S
C642       O2329   1.270       .  A
C642        C798   1.489       .  S
C643        C821   1.472       .  S
C644       C1241   1.472       .  S
Zn645      O2345   1.931       .  S
Zn645       O654   1.971       .  S
Zn645       O661   1.994       .  S
Zn645      O2346   2.012       .  S
Zn646       O649   1.938       .  S
Zn646       O651   1.985       .  S
Zn646       O653   2.016       .  S
Zn646       O657   1.983       .  S
Zn647       O649   1.976       .  S
Zn647       O655   2.074       .  S
Zn647       O658   2.039       .  S
Zn647      O2348   2.072   1_545  S
Zn648       O649   1.959       .  S
Zn648       O656   2.019       .  S
Zn648       O659   2.040       .  S
Zn648       O660   2.056       .  S
O649      Zn2341   1.929   1_545  S
O650      Zn2341   2.001       .  S
O650        C662   1.270   1_565  A
O651        C663   1.269       .  A
O652      Zn2343   2.072       .  S
O652        C664   1.282       .  A
O653        C662   1.273       .  A
O654        C664   1.270       .  A
O655        C663   1.281       .  A
O656        C665   1.275       .  A
O657        C666   1.271       .  A
O658        C665   1.276       .  A
O659        C666   1.277       .  A
O660        C667   1.279       .  A
O661       C2363   1.271       .  A
C662        C788   1.486       .  S
C663       C1108   1.494       .  S
C664        C771   1.476       .  S
C665       C1198   1.497       .  S
C666        C781   1.483       .  S
C667       O2357   1.268   1_545  A
C667        C801   1.486       .  S
Zn668       O672   1.987       .  S
Zn668       O673   2.092       .  S
Zn668       O677   2.013       .  S
Zn668       O684   2.069       .  S
Zn669       O672   1.945       .  S
Zn669       O674   1.995       .  S
Zn669       O676   1.968       .  S
Zn669       O680   2.019       .  S
Zn670       O672   1.962       .  S
Zn670       O675   2.008       .  S
Zn670       O678   2.029       .  S
Zn670       O681   2.056       .  S
Zn671       O672   1.935       .  S
Zn671       O679   1.991       .  S
Zn671       O682   1.983       .  S
Zn671       O683   1.959       .  S
O673        C685   1.281       .  A
O674        C686   1.272       .  A
O675        C687   1.273       .  A
O676        C685   1.266       .  A
O677        C687   1.273       .  A
O678        C686   1.275       .  A
O679        C688   1.269       .  A
O680        C689   1.272       .  A
O681        C688   1.278       .  A
O682        C689   1.269       .  A
O683        C690   1.267       .  A
O684        C690   1.280       .  A
C685       C1058   1.481       .  S
C686        C768   1.477       .  S
C687       C1181   1.465       .  S
C688        C831   1.495       .  S
C689        C758   1.468       .  S
C690        C778   1.471       .  S
Zn691       O695   1.939       .  S
Zn691       O696   1.974       .  S
Zn691       O700   2.018       .  S
Zn691       O707   1.991       .  S
Zn692       O695   1.974       .  S
Zn692       O697   2.072       .  S
Zn692       O699   2.077       .  S
Zn692       O703   2.023       .  S
Zn693       O695   1.920       .  S
Zn693       O698   1.986       .  S
Zn693       O701   1.942       .  S
Zn693       O704   1.968       .  S
Zn694       O695   1.951       .  S
Zn694       O702   2.049       .  S
Zn694       O705   2.018       .  S
Zn694       O706   2.018       .  S
O696        C708   1.269       .  A
O697        C709   1.281       .  A
O698        C710   1.268       .  A
O699        C708   1.280       .  A
O700        C710   1.272       .  A
O701        C709   1.265       .  A
O702        C711   1.276       .  A
O703        C712   1.275       .  A
O704        C711   1.266       .  A
O705        C712   1.275       .  A
O706        C713   1.276       .  A
O707        C713   1.271       .  A
C708       C1038   1.486       .  S
C709        C738   1.474       .  S
C710        C761   1.466       .  S
C711        C841   1.471       .  S
C712       C1151   1.481       .  S
C713        C748   1.484       .  S
Zn714       O718   1.918       .  S
Zn714       O719   1.982       .  S
Zn714       O723   1.955       .  S
Zn714       O730   1.961       .  S
Zn715      O2414   1.923   1_545  S
Zn715       O720   1.946       .  S
Zn715       O726   1.973       .  S
Zn715      O2418   1.984       .  S
Zn716      O2414   1.971   1_545  S
Zn716       O724   2.057       .  S
Zn716      O2417   2.084   1_545  S
Zn716      O2423   2.002   1_545  S
Zn717       O718   1.957       .  S
Zn717       O725   2.027       .  S
Zn717       O728   2.069       .  S
Zn717       O729   2.056       .  S
O718      Zn2411   1.925       .  S
O718      Zn2412   1.973       .  S
O719        C731   1.269       .  A
O720        C732   1.266       .  A
O721      Zn2412   2.067       .  S
O721        C733   1.277       .  A
O722      Zn2411   1.998       .  S
O722        C731   1.270       .  A
O723        C733   1.265       .  A
O724        C732   1.279       .  A
O725        C734   1.276       .  A
O726       C2431   1.267   1_545  A
O727      Zn2412   2.003       .  S
O727        C734   1.273       .  A
O728        C735   1.280       .  A
O729        C736   1.280       .  A
O730        C736   1.267       .  A
C731       C1138   1.469       .  S
C732        C751   1.474       .  S
C733        C998   1.478       .  S
C734        C791   1.487       .  S
C735       O2422   1.269       .  A
C735        C878   1.493       .  S
C736        C741   1.485       .  S
C737        C738   1.410       .  A
C737        C742   1.396       .  A
C737        F744   1.359       .  S
C738        C739   1.401       .  A
C739        C740   1.399       .  A
C739        F746   1.358       .  S
C740        C741   1.416       .  A
C740        F745   1.358       .  S
C741        C742   1.406       .  A
C742        F743   1.358       .  S
C747        C748   1.408       .  A
C747        C752   1.393       .  A
C747        F754   1.358       .  S
C748        C749   1.414       .  A
C749        C750   1.400       .  A
C749        F756   1.358       .  S
C750        C751   1.403       .  A
C750        F755   1.358       .  S
C751        C752   1.408       .  A
C752        F753   1.359       .  S
C757        C758   1.405       .  A
C757        C762   1.394       .  A
C757        F764   1.358       .  S
C758        C759   1.406       .  A
C759        C760   1.399       .  A
C759        F766   1.358       .  S
C760        C761   1.404       .  A
C760        F765   1.358       .  S
C761        C762   1.403       .  A
C762        F763   1.358       .  S
C767        C768   1.411       .  A
C767        C772   1.400       .  A
C767        F774   1.358       .  S
C768        C769   1.403       .  A
C769        C770   1.399       .  A
C769        F776   1.358       .  S
C770        C771   1.411       .  A
C770        F775   1.358       .  S
C771        C772   1.402       .  A
C772        F773   1.357       .  S
C777        C778   1.403       .  A
C777        C782   1.394       .  A
C777        F784   1.358       .  S
C778        C779   1.404       .  A
C779        C780   1.404       .  A
C779        F786   1.358       .  S
C780        C781   1.411       .  A
C780        F785   1.358       .  S
C781        C782   1.409       .  A
C782        F783   1.358       .  S
C787        C788   1.411   1_565  A
C787        C792   1.399       .  A
C787        F794   1.358       .  S
C788       C2485   1.407       .  A
C789        C790   1.398       .  A
C789       C2484   1.410       .  A
C789        F796   1.358       .  S
C790        C791   1.411       .  A
C790        F795   1.358       .  S
C791       C2488   1.408       .  A
C792       C2487   1.410       .  A
C792        F793   1.358       .  S
C797        C802   1.399   1_655  A
C797       C2494   1.412   1_545  A
C797        F804   1.358       .  S
C798        C799   1.407       .  A
C798       C2493   1.412       .  A
C799        C800   1.403   1_655  A
C799        F806   1.358       .  S
C800       C2497   1.414       .  A
C800        F805   1.358       .  S
C801        C802   1.405       .  A
C801       C2496   1.413   1_545  A
C802        F803   1.358       .  S
C807        C808   1.413       .  A
C807        C812   1.396       .  A
C807        F814   1.358       .  S
C808        C809   1.410       .  A
C809        C810   1.403       .  A
C809        F816   1.357       .  S
C810        C811   1.405       .  A
C810        F815   1.358       .  S
C811        C812   1.402       .  A
C812        F813   1.359       .  S
C817        C818   1.416       .  A
C817        C822   1.400       .  A
C817        F824   1.357       .  S
C818        C819   1.405       .  A
C819        C820   1.400       .  A
C819        F826   1.358       .  S
C820        C821   1.407       .  A
C820        F825   1.358       .  S
C821        C822   1.399       .  A
C822        F823   1.358       .  S
C827        C828   1.415       .  A
C827        C832   1.400   1_655  A
C827        F834   1.358       .  S
C828        C829   1.408       .  A
C829        C830   1.403   1_655  A
C829        F836   1.358       .  S
C830        C831   1.416       .  A
C830        F835   1.358       .  S
C831        C832   1.406       .  A
C832        F833   1.358       .  S
C837        C838   1.407       .  A
C837        C842   1.398   1_655  A
C837        F844   1.358       .  S
C838        C839   1.414       .  A
C839        C840   1.399   1_655  A
C839        F846   1.358       .  S
C840        C841   1.400       .  A
C840        F845   1.358       .  S
C841        C842   1.407       .  A
C842        F843   1.358       .  S
C847        C848   1.409       .  A
C847        C852   1.399       .  A
C847        F854   1.358       .  S
C848        C849   1.411       .  A
C849        C850   1.401       .  A
C849        F856   1.358       .  S
C850        C851   1.406       .  A
C850        F855   1.358       .  S
C851        C852   1.407       .  A
C852        F853   1.358       .  S
C857        C858   1.400       .  A
C857        C862   1.399       .  A
C857        F864   1.358       .  S
C858        C859   1.405       .  A
C859        C860   1.400       .  A
C859        F866   1.358       .  S
C860        C861   1.408       .  A
C860        F865   1.358       .  S
C861        C862   1.413       .  A
C862        F863   1.358       .  S
C867        C868   1.410       .  A
C867        C872   1.406       .  A
C867        F874   1.358       .  S
C868        C869   1.407       .  A
C869        C870   1.396       .  A
C869        F876   1.358       .  S
C870        C871   1.407       .  A
C870        F875   1.359       .  S
C871        C872   1.407       .  A
C872        F873   1.357       .  S
C877        C878   1.405       .  A
C877        C882   1.402   1_455  A
C877        F884   1.358       .  S
C878       C2575   1.416       .  A
C879        C880   1.401   1_455  A
C879       C2574   1.417   1_545  A
C879        F886   1.358       .  S
C880        C881   1.405       .  A
C880        F885   1.358       .  S
C881       C2578   1.416   1_545  A
C882       C2577   1.416       .  A
C882        F883   1.358       .  S
C887        C892   1.396       .  A
C887       C2584   1.411       .  A
C887        F894   1.358       .  S
C888        C889   1.408       .  A
C888       C2583   1.412   1_545  A
C889        C890   1.395       .  A
C889        F896   1.358       .  S
C890       C2587   1.410   1_545  A
C890        F895   1.358       .  S
C891        C892   1.408       .  A
C891       C2586   1.410       .  A
C892        F893   1.358       .  S
C897        C898   1.403       .  A
C897        C902   1.404       .  A
C897        F904   1.358       .  S
C898        C899   1.414       .  A
C899        C900   1.404       .  A
C899        F906   1.358       .  S
C900        C901   1.401       .  A
C900        F905   1.357       .  S
C901        C902   1.413       .  A
C902        F903   1.358       .  S
C907        C908   1.398       .  A
C907        C912   1.393       .  A
C907        F914   1.358       .  S
C908        C909   1.410       .  A
C909        C910   1.399       .  A
C909        F916   1.359       .  S
C910       C2607   1.406       .  A
C910       F2611   1.358       .  S
C911       C2606   1.405   1_545  A
C911       C2608   1.418   1_545  A
C912       C2607   1.416       .  A
C912       F2609   1.358       .  S
F913       C2608   1.358   1_545  S
F915       C2606   1.358   1_545  S
C917        C918   1.403       .  A
C917        C922   1.398       .  A
C917        F924   1.358       .  S
C918        C919   1.410       .  A
C919        C920   1.394       .  A
C919        F926   1.358       .  S
C920        C921   1.407       .  A
C920        F925   1.358       .  S
C921        C922   1.416       .  A
C922        F923   1.358       .  S
C927        C928   1.415       .  A
C927        C932   1.401       .  A
C927        F934   1.358       .  S
C928        C929   1.405       .  A
C929        C930   1.403       .  A
C929        F936   1.358       .  S
C930        C931   1.415       .  A
C930        F935   1.358       .  S
C931        C932   1.405       .  A
C932        F933   1.358       .  S
C937        C938   1.412       .  A
C937        C942   1.403       .  A
C937        F944   1.358       .  S
C938        C939   1.400       .  A
C939        C940   1.400       .  A
C939        F946   1.358       .  S
C940        C941   1.417       .  A
C940        F945   1.358       .  S
C941        C942   1.404       .  A
C942        F943   1.357       .  S
C947        C948   1.413       .  A
C947        C952   1.394       .  A
C947        F954   1.358       .  S
C948        C949   1.407       .  A
C949        C950   1.401       .  A
C949        F956   1.358       .  S
C950        C951   1.413       .  A
C950        F955   1.358       .  S
C951        C952   1.406       .  A
C952        F953   1.358       .  S
C957        C958   1.405       .  A
C957        C962   1.397       .  A
C957        F964   1.358       .  S
C958        C959   1.404       .  A
C959        C960   1.400       .  A
C959        F966   1.358       .  S
C960        C961   1.408       .  A
C960        F965   1.358       .  S
C961        C962   1.409       .  A
C962        F963   1.358       .  S
C967        C972   1.395       .  A
C967       C2664   1.403   1_545  A
C967       F2670   1.359   1_545  S
C968       C2663   1.401       .  A
C968       C2665   1.406       .  A
C969        C970   1.401       .  A
C969       C2664   1.405   1_545  A
C969       F2672   1.358   1_545  S
C970        C971   1.407       .  A
C970        F975   1.358       .  S
C971        C972   1.410       .  A
C972        F973   1.359       .  S
F974       C2663   1.358       .  S
F976       C2665   1.358       .  S
C977        C978   1.401       .  A
C977        C982   1.403       .  A
C977        F984   1.358       .  S
C978        C979   1.415       .  A
C979        C980   1.404       .  A
C979        F986   1.358       .  S
C980        C981   1.402       .  A
C980        F985   1.357       .  S
C981        C982   1.414       .  A
C982        F983   1.356       .  S
C987        C988   1.409       .  A
C987        C992   1.403       .  A
C987        F994   1.358       .  S
C988        C989   1.405       .  A
C989        C990   1.403       .  A
C989        F996   1.358       .  S
C990        C991   1.409       .  A
C990        F995   1.358       .  S
C991        C992   1.405       .  A
C992        F993   1.358       .  S
C997        C998   1.413       .  A
C997       C1002   1.396       .  A
C997       F1004   1.359       .  S
C998        C999   1.402       .  A
C999       C1000   1.403       .  A
C999       F1006   1.358       .  S
C1000      C1001   1.413       .  A
C1000      F1005   1.359       .  S
C1001      C1002   1.398       .  A
C1002      F1003   1.358       .  S
C1007      C1008   1.417       .  A
C1007      C1012   1.400       .  A
C1007      F1014   1.358       .  S
C1008      C1009   1.405       .  A
C1009      C1010   1.401       .  A
C1009      F1016   1.358       .  S
C1010      C1011   1.416       .  A
C1010      F1015   1.358       .  S
C1011      C1012   1.405       .  A
C1012      F1013   1.358       .  S
C1017      C1018   1.407       .  A
C1017      C1022   1.396       .  A
C1017      F1024   1.358       .  S
C1018      C1019   1.415       .  A
C1019      C1020   1.400       .  A
C1019      F1026   1.358       .  S
C1020      C1021   1.406       .  A
C1020      F1025   1.358       .  S
C1021      C1022   1.411       .  A
C1022      F1023   1.358       .  S
C1027      C1028   1.409       .  A
C1027      C1032   1.394       .  A
C1027      F1034   1.359       .  S
C1028      C1029   1.401       .  A
C1029      C1030   1.400       .  A
C1029      F1036   1.358       .  S
C1030      C2727   1.418   1_545  A
C1030      F2731   1.358   1_545  S
C1031      C2726   1.419       .  A
C1031      C2728   1.407       .  A
C1032      C2727   1.406   1_545  A
C1032      F1033   1.358   1_545  S
F1035      C2726   1.358       .  S
C1037      C1038   1.410       .  A
C1037      C1042   1.409       .  A
C1037      F1044   1.358       .  S
C1038      C1039   1.408       .  A
C1039      C1040   1.395       .  A
C1039      F1046   1.358       .  S
C1040      C1041   1.407       .  A
C1040      F1045   1.358       .  S
C1041      C1042   1.410       .  A
C1042      F1043   1.358       .  S
C1047      C1048   1.413       .  A
C1047      C1052   1.403       .  A
C1047      F1054   1.358       .  S
C1048      C1049   1.405       .  A
C1049      C1050   1.401       .  A
C1049      F1056   1.358       .  S
C1050      C1051   1.413       .  A
C1050      F1055   1.358       .  S
C1051      C1052   1.405       .  A
C1052      F1053   1.358       .  S
C1057      C1058   1.404       .  A
C1057      C1062   1.399       .  A
C1057      F1064   1.358       .  S
C1058      C1059   1.407       .  A
C1059      C1060   1.409       .  A
C1059      F1066   1.358       .  S
C1060      C1061   1.413       .  A
C1060      F1065   1.358       .  S
C1061      C1062   1.412       .  A
C1062      F1063   1.358       .  S
C1067      C1068   1.406       .  A
C1067      C1072   1.397       .  A
C1067      F1074   1.358       .  S
C1068      C1069   1.416       .  A
C1069      C1070   1.402       .  A
C1069      F1076   1.358       .  S
C1070      C1071   1.405       .  A
C1070      F1075   1.358       .  S
C1071      C1072   1.411       .  A
C1072      F1073   1.358       .  S
C1077      C1078   1.406       .  A
C1077      C1082   1.399       .  A
C1077      F1084   1.358       .  S
C1078      C1079   1.414       .  A
C1079      C1080   1.399       .  A
C1079      F1086   1.358       .  S
C1080      C1081   1.407       .  A
C1080      F1085   1.358       .  S
C1081      C1082   1.415       .  A
C1082      F1083   1.358       .  S
C1087      C1088   1.410       .  A
C1087      C1092   1.398       .  A
C1087      F1094   1.359       .  S
C1088      C1089   1.400       .  A
C1089      C1090   1.398       .  A
C1089      F1096   1.358       .  S
C1090      C2787   1.417       .  A
C1090      F2791   1.358       .  S
C1091      C2786   1.417   1_545  A
C1091      C2788   1.403   1_545  A
C1092      C2787   1.407       .  A
C1092      F2789   1.358       .  S
F1093      C2788   1.358   1_545  S
F1095      C2786   1.358   1_545  S
C1097      C1098   1.404       .  A
C1097      C1102   1.400       .  A
C1097      F1104   1.358       .  S
C1098      C1099   1.407       .  A
C1099      C1100   1.398       .  A
C1099      F1106   1.358       .  S
C1100      C1101   1.411       .  A
C1100      F1105   1.358       .  S
C1101      C1102   1.414       .  A
C1102      F1103   1.358       .  S
C1107      C1108   1.415       .  A
C1107      C1112   1.404       .  A
C1107      F1114   1.358       .  S
C1108      C1109   1.406       .  A
C1109      C1110   1.402       .  A
C1109      F1116   1.358       .  S
C1110      C1111   1.415       .  A
C1110      F1115   1.358       .  S
C1111      C1112   1.406       .  A
C1112      F1113   1.358       .  S
C1117      C1118   1.415       .  A
C1117      C1122   1.401       .  A
C1117      F1124   1.358       .  S
C1118      C1119   1.408       .  A
C1119      C1120   1.405       .  A
C1119      F1126   1.358       .  S
C1120      C1121   1.408       .  A
C1120      F1125   1.358       .  S
C1121      C1122   1.400       .  A
C1122      F1123   1.358       .  S
C1127      C1128   1.409       .  A
C1127      C1132   1.396       .  A
C1127      F1134   1.358       .  S
C1128      C1129   1.413       .  A
C1129      C1130   1.401       .  A
C1129      F1136   1.358       .  S
C1130      C1131   1.408       .  A
C1130      F1135   1.358       .  S
C1131      C1132   1.410       .  A
C1132      F1133   1.358       .  S
C1137      C1138   1.407       .  A
C1137      C1142   1.393       .  A
C1137      F1144   1.358       .  S
C1138      C1139   1.406       .  A
C1139      C1140   1.395       .  A
C1139      F1146   1.358       .  S
C1140      C1141   1.405       .  A
C1140      F1145   1.358       .  S
C1141      C1142   1.404       .  A
C1142      F1143   1.358       .  S
C1147      C1148   1.405       .  A
C1147      C1152   1.400       .  A
C1147      F1154   1.358       .  S
C1148      C1149   1.404       .  A
C1149      C1150   1.399       .  A
C1149      F1156   1.358       .  S
C1150      C1151   1.409       .  A
C1150      F1155   1.358       .  S
C1151      C1152   1.409       .  A
C1152      F1153   1.358       .  S
C1157      C1158   1.404       .  A
C1157      C1162   1.393       .  A
C1157      F1164   1.359       .  S
C1158      C1159   1.406       .  A
C1159      C1160   1.404       .  A
C1159      F1166   1.358       .  S
C1160      C1161   1.409       .  A
C1160      F1165   1.357       .  S
C1161      C1162   1.408       .  A
C1162      F1163   1.358       .  S
C1167      C1168   1.412       .  A
C1167      C1172   1.397       .  A
C1167      F1174   1.359       .  S
C1168      C1169   1.399       .  A
C1169      C1170   1.398       .  A
C1169      F1176   1.358       .  S
C1170      C1171   1.412       .  A
C1170      F1175   1.358       .  S
C1171      C1172   1.399       .  A
C1172      F1173   1.358       .  S
C1177      C1178   1.409       .  A
C1177      C1182   1.399   1_556  A
C1177      F1184   1.358       .  S
C1178      C1179   1.407       .  A
C1179      C1180   1.395   1_556  A
C1179      F1186   1.358       .  S
C1180      C1181   1.402       .  A
C1180      F1185   1.358       .  S
C1181      C1182   1.403       .  A
C1182      F1183   1.358       .  S
C1187      C1188   1.409       .  A
C1187      C1192   1.406       .  A
C1187      F1194   1.358       .  S
C1188      C1189   1.411       .  A
C1189      C1190   1.401       .  A
C1189      F1196   1.358       .  S
C1190      C1191   1.407       .  A
C1190      F1195   1.358       .  S
C1191      C1192   1.410       .  A
C1192      F1193   1.358       .  S
C1197      C1198   1.412       .  A
C1197      C1202   1.403   1_554  A
C1197      F1204   1.358   1_545  S
C1198      C1199   1.411       .  A
C1199      C1200   1.400   1_554  A
C1199      F1206   1.358       .  S
C1200      C1201   1.411       .  A
C1200      F1205   1.358       .  S
C1201      C1202   1.411       .  A
C1202      F1203   1.358   1_545  S
C1207      C1208   1.422       .  A
C1207      C1212   1.395       .  A
C1207      F1214   1.358       .  S
C1208      C1209   1.403       .  A
C1209      C1210   1.398       .  A
C1209      F1216   1.358       .  S
C1210      C1211   1.415       .  A
C1210      F1215   1.358       .  S
C1211      C1212   1.397       .  A
C1212      F1213   1.358       .  S
C1217      C1218   1.416       .  A
C1217      C1222   1.398       .  A
C1217      F1224   1.358       .  S
C1218      C1219   1.408       .  A
C1219      C1220   1.396       .  A
C1219      F1226   1.358       .  S
C1220      C1221   1.409       .  A
C1220      F1225   1.359       .  S
C1221      C1222   1.402       .  A
C1222      F1223   1.358       .  S
C1227      C1228   1.407       .  A
C1227      C1232   1.398       .  A
C1227      F1234   1.358       .  S
C1228      C2925   1.410   1_545  A
C1229      C1230   1.397       .  A
C1229      C2924   1.409       .  A
C1229      F1236   1.358       .  S
C1230      C1231   1.410       .  A
C1230      F1235   1.358       .  S
C1231      C2928   1.411       .  A
C1232      C2927   1.412   1_545  A
C1232      F1233   1.358       .  S
C1237      C1238   1.408       .  A
C1237      C1242   1.392   1_556  A
C1237      F1244   1.359       .  S
C1238      C1239   1.406       .  A
C1239      C1240   1.392   1_556  A
C1239      F2942   1.358       .  S
C1240      C1241   1.407       .  A
C1240      F2941   1.358       .  S
C1241      C1242   1.407       .  A
C1242      F1243   1.359       .  S
F1245      C2936   1.358       .  S
F1246      C2935   1.358       .  S
C1247      C1252   1.401   1_655  A
C1247      C2944   1.415   1_545  A
C1247      F1254   1.358       .  S
C1248      C1249   1.405       .  A
C1248      C2943   1.418       .  A
C1249      C1250   1.400   1_655  A
C1249      F1256   1.358       .  S
C1250      C2947   1.418       .  A
C1250      F1255   1.358       .  S
C1251      C1252   1.406       .  A
C1251      C2946   1.414   1_545  A
C1252      F1253   1.358       .  S
C1257      C1258   1.407       .  A
C1257      C1262   1.401   1_556  A
C1257      F1264   1.358       .  S
C1258      C1259   1.407       .  A
C1259      C1260   1.402   1_556  A
C1259      F1266   1.358       .  S
C1260      C1261   1.407       .  A
C1260      F1265   1.358       .  S
C1261      C1262   1.408       .  A
C1262      F1263   1.358       .  S
C1267      C1268   1.419       .  A
C1267      C1272   1.398       .  A
C1267      F1274   1.358       .  S
C1268      C1269   1.406       .  A
C1269      C1270   1.396       .  A
C1269      F1276   1.358       .  S
C1270      C1271   1.410       .  A
C1270      F1275   1.359       .  S
C1271      C1272   1.399       .  A
C1272      F1273   1.358       .  S
C1277      C1278   1.406       .  A
C1277      C1282   1.399       .  A
C1277      F1284   1.358       .  S
C1278      C1279   1.414       .  A
C1279      C1280   1.395       .  A
C1279      F1286   1.358       .  S
C1280      C1281   1.404       .  A
C1280      F1285   1.358       .  S
C1281      C1282   1.413       .  A
C1282      F1283   1.358       .  S
C1287      C1288   1.416       .  A
C1287      C1292   1.401   1_455  A
C1287      F1294   1.358       .  S
C1288      C1289   1.407       .  A
C1289      C1290   1.400   1_455  A
C1289      F1296   1.357       .  S
C1290      C1291   1.413       .  A
C1290      F1295   1.358       .  S
C1291      C1292   1.407       .  A
C1292      F1293   1.358       .  S
C1297      C1298   1.408       .  A
C1297      C1302   1.398       .  A
C1297      F1304   1.358       .  S
C1298      C1299   1.404       .  A
C1299      C1300   1.397       .  A
C1299      F1306   1.358       .  S
C1300      C1301   1.407       .  A
C1300      F1305   1.358       .  S
C1301      C1302   1.406       .  A
C1302      F1303   1.358       .  S
C1307      C1308   1.403       .  A
C1307      C1312   1.400   1_655  A
C1307      F1314   1.358       .  S
C1308      C1309   1.410       .  A
C1309      C1310   1.399   1_655  A
C1309      F1316   1.358       .  S
C1310      C1311   1.402       .  A
C1310      F1315   1.358       .  S
C1311      C1312   1.410       .  A
C1312      F1313   1.358       .  S
C1317      C1318   1.414       .  A
C1317      C1322   1.399       .  A
C1317      F1324   1.358       .  S
C1318      C1319   1.407       .  A
C1319      C1320   1.398       .  A
C1319      F1326   1.358       .  S
C1320      C1321   1.414       .  A
C1320      F1325   1.358       .  S
C1321      C1322   1.407       .  A
C1322      F1323   1.358       .  S
C1327      C1328   1.411       .  A
C1327      C1332   1.403       .  A
C1327      F1334   1.358       .  S
C1328      C1329   1.411       .  A
C1329      C1330   1.401       .  A
C1329      F1336   1.358       .  S
C1330      C1331   1.411       .  A
C1330      F1335   1.358       .  S
C1331      C1332   1.411       .  A
C1332      F1333   1.358   1_545  S
C1337      C1338   1.401       .  A
C1337      C1342   1.397       .  A
C1337      F1344   1.358       .  S
C1338      C1339   1.414       .  A
C1339      C1340   1.397       .  A
C1339      F1346   1.359       .  S
C1340      C1341   1.406       .  A
C1340      F1345   1.358       .  S
C1341      C1342   1.417       .  A
C1342      F1343   1.358       .  S
C1347      C1348   1.410       .  A
C1347      C1352   1.396       .  A
C1347      F1354   1.358       .  S
C1348      C1349   1.413       .  A
C1349      C1350   1.396       .  A
C1349      F1356   1.358       .  S
C1350      C1351   1.405       .  A
C1350      F1355   1.358       .  S
C1351      C1352   1.409       .  A
C1352      F1353   1.358       .  S
C1357      C1362   1.399   1_655  A
C1357      C3054   1.417       .  A
C1357      F1364   1.358       .  S
C1358      C1359   1.406       .  A
C1358      C3053   1.414   1_545  A
C1359      C1360   1.399   1_655  A
C1359      F1366   1.358       .  S
C1360      C3057   1.414   1_545  A
C1360      F1365   1.358       .  S
C1361      C1362   1.404       .  A
C1361      C3056   1.415       .  A
C1362      F1363   1.358       .  S
C1367      C1368   1.415   1_565  A
C1367      C3068   1.400       .  A
C1367      F1374   1.358       .  S
C1368      C1369   1.408       .  A
C1369      C1370   1.401       .  A
C1369      F1376   1.358       .  S
C1370      C3067   1.412   1_545  A
C1370      F1375   1.358       .  S
C1371      C1372   1.408       .  A
C1371      C3066   1.414       .  A
C1372      C3063   1.399       .  A
C1372      F1373   1.358       .  S
C1377      C1378   1.408       .  A
C1377      C1382   1.397       .  A
C1377      F1384   1.358       .  S
C1378      C1379   1.409       .  A
C1379      C1380   1.397       .  A
C1379      F1386   1.358       .  S
C1380      C1381   1.403       .  A
C1380      F1385   1.358       .  S
C1381      C1382   1.404       .  A
C1382      F1383   1.358       .  S
C1387      C1388   1.406       .  A
C1387      C1392   1.400       .  A
C1387      F1394   1.358       .  S
C1388      C1389   1.414       .  A
C1389      C1390   1.400       .  A
C1389      F1396   1.358       .  S
C1390      C1391   1.405       .  A
C1390      F1395   1.358       .  S
C1391      C1392   1.416       .  A
C1392      F1393   1.358       .  S
C1397      C1398   1.410       .  A
C1397      C1402   1.402       .  A
C1397      F1404   1.359       .  S
C1398      C1399   1.413       .  A
C1399      C1400   1.401       .  A
C1399      F1406   1.357       .  S
C1400      C1401   1.410       .  A
C1400      F1405   1.359       .  S
C1401      C1402   1.413       .  A
C1402      F1403   1.357       .  S
C1407      C1408   1.401       .  A
C1407      C1412   1.395       .  A
C1407      F1414   1.359       .  S
C1408      C1409   1.402       .  A
C1409      C1410   1.401       .  A
C1409      F1416   1.358       .  S
C1410      C1411   1.410       .  A
C1410      F1415   1.358       .  S
C1411      C1412   1.411       .  A
C1412      F1413   1.358       .  S
C1417      C1418   1.410       .  A
C1417      C1422   1.395       .  A
C1417      F1424   1.359       .  S
C1418      C1419   1.403       .  A
C1419      C1420   1.405       .  A
C1419      F1426   1.357       .  S
C1420      C3117   1.412   1_545  A
C1420      F3121   1.358   1_545  S
C1421      C3116   1.412       .  A
C1421      C3118   1.416       .  A
C1422      C3117   1.403   1_545  A
C1422      F3119   1.358   1_545  S
F1423      C3118   1.358       .  S
F1425      C3116   1.358       .  S
C1427      C1428   1.412       .  A
C1427      C1432   1.399       .  A
C1427      F1434   1.358       .  S
C1428      C1429   1.405       .  A
C1429      C1430   1.405       .  A
C1429      F1436   1.358       .  S
C1430      C1431   1.415       .  A
C1430      F1435   1.358       .  S
C1431      C1432   1.405       .  A
C1432      F1433   1.358       .  S
C1437      C1438   1.405       .  A
C1437      C1442   1.398   1_556  A
C1437      F1444   1.358       .  S
C1438      C1439   1.406       .  A
C1439      C1440   1.402   1_556  A
C1439      F1446   1.358       .  S
C1440      C1441   1.409       .  A
C1440      F1445   1.358       .  S
C1441      C1442   1.408       .  A
C1442      F1443   1.358       .  S
C1447      C1448   1.415       .  A
C1447      C1452   1.399       .  A
C1447      F1454   1.358       .  S
C1448      C1449   1.404       .  A
C1449      C1450   1.403       .  A
C1449      F1456   1.358       .  S
C1450      C1451   1.413       .  A
C1450      F1455   1.358       .  S
C1451      C1452   1.399       .  A
C1452      F1453   1.358       .  S
C1457      C1458   1.409       .  A
C1457      C1462   1.397       .  A
C1457      F1464   1.358       .  S
C1458      C1459   1.412       .  A
C1459      C1460   1.398       .  A
C1459      F1466   1.358       .  S
C1460      C1461   1.408       .  A
C1460      F1465   1.358       .  S
C1461      C1462   1.411       .  A
C1462      F1463   1.358       .  S
C1467      C1468   1.407       .  A
C1467      C1472   1.389   1_556  A
C1467      F1474   1.358       .  S
C1468      C1469   1.406       .  A
C1469      C1470   1.394   1_556  A
C1469      F1476   1.359       .  S
C1470      C1471   1.409       .  A
C1470      F1475   1.357       .  S
C1471      C1472   1.407       .  A
C1472      F1473   1.359       .  S
C1477      C1478   1.400       .  A
C1477      C1482   1.393       .  A
C1477      F1484   1.358       .  S
C1478      C1479   1.407       .  A
C1479      C1480   1.405       .  A
C1479      F1486   1.358       .  S
C1480      C3177   1.408       .  A
C1480      F3181   1.358       .  S
C1481      C3176   1.404   1_545  A
C1481      C3178   1.407   1_545  A
C1482      C3177   1.411       .  A
C1482      F3179   1.358       .  S
F1483      C3178   1.359   1_545  S
F1485      C3176   1.358   1_545  S
C1487      C1488   1.405       .  A
C1487      C1492   1.403       .  A
C1487      F1494   1.358       .  S
C1488      C1489   1.408       .  A
C1489      C1490   1.394       .  A
C1489      F1496   1.359       .  S
C1490      C1491   1.404       .  A
C1490      F1495   1.358       .  S
C1491      C1492   1.409       .  A
C1492      F1493   1.358       .  S
C1497      C1498   1.417       .  A
C1497      C1502   1.403       .  A
C1497      F1504   1.358       .  S
C1498      C1499   1.405       .  A
C1499      C1500   1.402       .  A
C1499      F1506   1.358       .  S
C1500      C1501   1.418       .  A
C1500      F1505   1.358       .  S
C1501      C1502   1.406       .  A
C1502      F1503   1.358       .  S
C1507      C1508   1.411       .  A
C1507      C1512   1.398       .  A
C1507      F1514   1.358       .  S
C1508      C1509   1.407       .  A
C1509      C1510   1.394       .  A
C1509      F1516   1.358       .  S
C1510      C1511   1.411       .  A
C1510      F1515   1.358       .  S
C1511      C1512   1.408       .  A
C1512      F1513   1.358       .  S
C1517      C1518   1.408       .  A
C1517      C1522   1.401       .  A
C1517      F1524   1.358       .  S
C1518      C1519   1.407       .  A
C1519      C1520   1.401       .  A
C1519      F1526   1.358       .  S
C1520      C1521   1.406       .  A
C1520      F1525   1.358       .  S
C1521      C1522   1.407       .  A
C1522      F1523   1.358       .  S
C1527      C1528   1.401       .  A
C1527      C1532   1.400       .  A
C1527      F1534   1.358       .  S
C1528      C1529   1.411       .  A
C1529      C1530   1.400       .  A
C1529      F1536   1.358       .  S
C1530      C1531   1.402       .  A
C1530      F1535   1.357       .  S
C1531      C1532   1.414       .  A
C1532      F1533   1.359       .  S
C1537      C1538   1.413       .  A
C1537      C1542   1.399       .  A
C1537      F1544   1.358       .  S
C1538      C1539   1.408       .  A
C1539      C1540   1.400       .  A
C1539      F1546   1.358       .  S
C1540      C1541   1.414       .  A
C1540      F1545   1.358       .  S
C1541      C1542   1.408       .  A
C1542      F1543   1.358       .  S
C1547      C1548   1.409       .  A
C1547      C1552   1.397       .  A
C1547      F1554   1.358       .  S
C1548      C1549   1.406       .  A
C1549      C1550   1.391       .  A
C1549      F1556   1.358       .  S
C1550      C1551   1.409       .  A
C1550      F1555   1.358       .  S
C1551      C1552   1.408       .  A
C1552      F1553   1.358       .  S
C1557      C1562   1.392       .  A
C1557      C3254   1.405       .  A
C1557      F3260   1.359       .  S
C1558      C3253   1.402   1_545  A
C1558      C3255   1.406   1_545  A
C1559      C1560   1.403       .  A
C1559      C3254   1.405       .  A
C1559      F3262   1.358       .  S
C1560      C1561   1.408       .  A
C1560      F1565   1.358       .  S
C1561      C1562   1.406       .  A
C1562      F1563   1.358       .  S
F1564      C3253   1.358   1_545  S
F1566      C3255   1.358   1_545  S
C1567      C1568   1.407       .  A
C1567      C1572   1.393       .  A
C1567      F1574   1.358       .  S
C1568      C1569   1.410       .  A
C1569      C1570   1.403       .  A
C1569      F1576   1.358       .  S
C1570      C1571   1.405       .  A
C1570      F1575   1.358       .  S
C1571      C1572   1.404       .  A
C1572      F1573   1.359       .  S
C1577      C1578   1.406       .  A
C1577      C1582   1.399       .  A
C1577      F1584   1.358       .  S
C1578      C1579   1.414       .  A
C1579      C1580   1.401       .  A
C1579      F1586   1.358       .  S
C1580      C1581   1.407       .  A
C1580      F1585   1.358       .  S
C1581      C1582   1.414       .  A
C1582      F1583   1.358       .  S
C1587      C1588   1.404       .  A
C1587      C1592   1.399       .  A
C1587      F1594   1.358       .  S
C1588      C1589   1.414       .  A
C1589      C1590   1.402       .  A
C1589      F1596   1.358       .  S
C1590      C1591   1.406       .  A
C1590      F1595   1.358       .  S
C1591      C1592   1.414       .  A
C1592      F1593   1.358       .  S
C1597      C1598   1.404       .  A
C1597      C1602   1.398   1_556  A
C1597      F1604   1.358       .  S
C1598      C1599   1.403       .  A
C1599      C1600   1.399   1_556  A
C1599      F1606   1.358       .  S
C1600      C1601   1.410       .  A
C1600      F1605   1.358       .  S
C1601      C1602   1.409       .  A
C1602      F1603   1.358       .  S
C1607      C1608   1.416       .  A
C1607      C1612   1.403       .  A
C1607      F1614   1.358       .  S
C1608      C1609   1.406       .  A
C1609      C1610   1.399       .  A
C1609      F1616   1.358       .  S
C1610      C1611   1.417       .  A
C1610      F1615   1.358       .  S
C1611      C1612   1.406       .  A
C1612      F1613   1.358       .  S
C1617      C1618   1.409       .  A
C1617      C1622   1.402       .  A
C1617      F1624   1.358       .  S
C1618      C1619   1.414       .  A
C1619      C1620   1.401       .  A
C1619      F1626   1.358       .  S
C1620      C1621   1.407       .  A
C1620      F1625   1.358       .  S
C1621      C1622   1.414       .  A
C1622      F1623   1.358       .  S
C1627      C1628   1.409       .  A
C1627      C1632   1.400       .  A
C1627      F1634   1.358       .  S
C1628      C1629   1.412       .  A
C1629      C1630   1.398       .  A
C1629      F1636   1.358       .  S
C1630      C1631   1.408       .  A
C1630      F1635   1.358       .  S
C1631      C1632   1.412       .  A
C1632      F1633   1.358       .  S
C1637      C1638   1.406       .  A
C1637      C1642   1.402   1_556  A
C1637      F1644   1.358       .  S
C1638      C1639   1.405       .  A
C1639      C1640   1.400   1_556  A
C1639      F1646   1.358       .  S
C1640      C1641   1.409       .  A
C1640      F1645   1.358       .  S
C1641      C1642   1.409       .  A
C1642      F1643   1.358       .  S
C1647      C1648   1.404       .  A
C1647      C1652   1.393       .  A
C1647      F1654   1.358       .  S
C1648      C1649   1.408       .  A
C1649      C1650   1.402       .  A
C1649      F1656   1.358       .  S
C1650      C1651   1.405       .  A
C1650      F1655   1.358       .  S
C1651      C1652   1.407       .  A
C1652      F1653   1.359       .  S
C1657      C1658   1.407       .  A
C1657      C1662   1.395       .  A
C1657      F1664   1.359       .  S
C1658      C1659   1.402       .  A
C1659      C1660   1.401       .  A
C1659      F1666   1.358       .  S
C1660      C3357   1.412   1_545  A
C1660      F1665   1.358   1_545  S
C1661      C3356   1.399       .  A
C1661      C3358   1.411       .  A
C1662      C3357   1.406   1_545  A
C1662      F3359   1.358       .  S
F1663      C3358   1.359       .  S
C1667      C1668   1.417       .  A
C1667      C1672   1.402       .  A
C1667      F1674   1.358       .  S
C1668      C1669   1.408       .  A
C1669      C1670   1.403       .  A
C1669      F1676   1.358       .  S
C1670      C1671   1.408       .  A
C1670      F1675   1.358       .  S
C1671      C1672   1.399       .  A
C1672      F1673   1.358       .  S
C1677      C1678   1.405       .  A
C1677      C1682   1.400       .  A
C1677      F1684   1.358       .  S
C1678      C1679   1.414       .  A
C1679      C1680   1.400       .  A
C1679      F1686   1.358       .  S
C1680      C1681   1.405       .  A
C1680      F1685   1.358       .  S
C1681      C1682   1.414       .  A
C1682      F1683   1.358       .  S
C1687      C1688   1.406       .  A
C1687      C1692   1.393       .  A
C1687      F1694   1.358       .  S
C1688      C1689   1.410       .  A
C1689      C1690   1.402       .  A
C1689      F1696   1.358       .  S
C1690      C1691   1.407       .  A
C1690      F1695   1.358       .  S
C1691      C1692   1.405       .  A
C1692      F1693   1.358       .  S
Zn1697     O1701   1.932       .  S
Zn1697     O1702   2.034       .  S
Zn1697     O1706   1.980       .  S
Zn1697     O1713   1.987       .  S
Zn1698     O1701   1.923       .  S
Zn1698     O1703   1.962       .  S
Zn1698     O1705   2.006       .  S
Zn1698     O1709   1.983       .  S
Zn1699     O1701   1.975       .  S
Zn1699     O1704   2.070       .  S
Zn1699     O1707   2.067       .  S
Zn1699     O1710   2.040       .  S
Zn1700     O1701   1.953       .  S
Zn1700     O1708   2.011       .  S
Zn1700     O1711   2.055       .  S
Zn1700     O1712   2.041       .  S
O1702      C1714   1.275       .  A
O1703      C1715   1.269       .  A
O1704      C1716   1.280       .  A
O1705      C1714   1.271       .  A
O1706      C1716   1.268       .  A
O1707      C1715   1.281       .  A
O1708      C1717   1.273       .  A
O1709      C1718   1.270       .  A
O1710      C1717   1.277       .  A
O1711      C1718   1.278       .  A
O1712      C1719   1.277       .  A
O1713      C1719   1.273       .  A
C1714      C3387   1.482       .  S
C1715      C3354   1.475       .  S
C1716      C3367   1.476       .  S
C1717      C3334   1.483       .  S
C1718      C3374   1.486       .  S
C1719      C3344   1.477       .  S
Zn1720     O1724   1.948       .  S
Zn1720     O1725   2.028       .  S
Zn1720     O1729   1.993       .  S
Zn1720     O1736   2.004       .  S
Zn1721     O1724   1.928       .  S
Zn1721     O1726   1.956       .  S
Zn1721     O1728   1.999       .  S
Zn1721     O1732   2.005       .  S
Zn1722     O1724   1.977       .  S
Zn1722     O1727   2.055       .  S
Zn1722     O1730   2.066       .  S
Zn1722     O1733   2.017       .  S
Zn1723     O1724   1.950       .  S
Zn1723     O1731   2.003       .  S
Zn1723     O1734   2.042       .  S
Zn1723     O1735   2.022       .  S
O1725      C1737   1.275       .  A
O1726      C1738   1.267       .  A
O1727      C1739   1.279       .  A
O1728      C1737   1.271       .  A
O1729      C1739   1.270       .  A
O1730      C1738   1.279       .  A
O1731      C1740   1.272       .  A
O1732      C1741   1.271       .  A
O1733      C1740   1.273       .  A
O1734      C1741   1.276       .  A
O1735      C1742   1.275       .  A
O1736      C1742   1.274       .  A
C1737      C3324   1.488       .  S
C1738      C3347   1.476       .  S
C1739      C3304   1.494       .  S
C1740      C3294   1.473       .  S
C1741      C3314   1.490       .  S
C1742      C3357   1.480       .  S
Zn1743     O1747   1.927       .  S
Zn1743     O1748   1.958       .  S
Zn1743     O1752   1.979       .  S
Zn1743     O1759   1.990       .  S
Zn1744     O1747   1.965       .  S
Zn1744     O1749   2.030       .  S
Zn1744     O1751   2.056       .  S
Zn1744     O1755   2.058       .  S
Zn1745     O1747   1.970       .  S
Zn1745     O1750   2.083       .  S
Zn1745     O1753   2.013       .  S
Zn1745     O1756   2.063       .  S
Zn1746     O1747   1.934       .  S
Zn1746     O1754   1.955       .  S
Zn1746     O1757   1.982       .  S
Zn1746     O1758   1.999       .  S
O1748      C1760   1.268       .  A
O1749      C1761   1.276       .  A
O1750      C1762   1.282       .  A
O1751      C1760   1.279       .  A
O1752      C1762   1.268       .  A
O1753      C1761   1.274       .  A
O1754      C1763   1.268       .  A
O1755      C1764   1.278       .  A
O1756      C1763   1.280       .  A
O1757      C1764   1.269       .  A
O1758      C1765   1.269       .  A
O1759      C1765   1.269       .  A
C1760      C3254   1.469       .  S
C1761      C3384   1.487       .  S
C1762      C3274   1.492       .  S
C1763      C3267   1.472       .  S
C1764      C3287   1.487       .  S
C1765      C3244   1.476       .  S
Zn1766     O1770   1.926       .  S
Zn1766     O1771   2.011       .  S
Zn1766     O1775   1.979       .  S
Zn1766     O1782   1.976       .  S
Zn1767     O1770   1.935       .  S
Zn1767     O1772   1.994       .  S
Zn1767     O1774   2.025       .  S
Zn1767     O1778   1.977       .  S
Zn1768     O1770   1.962       .  S
Zn1768     O1773   2.046       .  S
Zn1768     O1776   2.054       .  S
Zn1768     O1779   2.018       .  S
Zn1769     O1770   1.977       .  S
Zn1769     O1777   2.009       .  S
Zn1769     O1780   2.051       .  S
Zn1769     O1781   2.076       .  S
O1771      C1783   1.272       .  A
O1772      C1784   1.270       .  A
O1773      C1785   1.277       .  A
O1774      C1783   1.273       .  A
O1775      C1785   1.271       .  A
O1776      C1784   1.278       .  A
O1777      C1786   1.272       .  A
O1778      C1787   1.271       .  A
O1779      C1786   1.274       .  A
O1780      C1787   1.279       .  A
O1781      C1788   1.281       .  A
O1782      C1788   1.268       .  A
C1783      C3214   1.478       .  S
C1784      C3234   1.495       .  S
C1785      C3264   1.477       .  S
C1786      C3327   1.490       .  S
C1787      C3257   1.481       .  S
C1788      C3227   1.489       .  S
Zn1789     O1793   1.966       .  S
Zn1789     O1794   2.054       .  S
Zn1789     O1798   2.021       .  S
Zn1789     O1805   2.064       .  S
Zn1790     O1793   1.942       .  S
Zn1790     O1795   1.966       .  S
Zn1790     O1797   1.992       .  S
Zn1790     O1801   2.004       .  S
Zn1791     O1793   1.969       .  S
Zn1791     O1796   2.004       .  S
Zn1791     O1799   2.058       .  S
Zn1791     O1802   2.076       .  S
Zn1792     O1793   1.922       .  S
Zn1792     O1800   1.969       .  S
Zn1792     O1803   1.970       .  S
Zn1792     O1804   1.953       .  S
O1794      C1806   1.279       .  A
O1795      C1807   1.268       .  A
O1796      C1808   1.273       .  A
O1797      C1806   1.270       .  A
O1798      C1808   1.275       .  A
O1799      C1807   1.279       .  A
O1800      C1809   1.266       .  A
O1801      C1810   1.270       .  A
O1802      C1809   1.281       .  A
O1803      C1810   1.267       .  A
O1804      C1811   1.267       .  A
O1805      C1811   1.279       .  A
C1806      C3377   1.486       .  S
C1807      C3184   1.467       .  S
C1808      C3204   1.489       .  S
C1809      C3194   1.488       .  S
C1810      C3164   1.473       .  S
C1811      C3177   1.481       .  S
Zn1812     O1816   1.975       .  S
Zn1812     O1817   2.002       .  S
Zn1812     O1821   2.035       .  S
Zn1812     O1828   2.069       .  S
Zn1813     O1816   1.967       .  S
Zn1813     O1818   2.051       .  S
Zn1813     O1820   2.021       .  S
Zn1813     O1824   2.046       .  S
Zn1814     O1816   1.940       .  S
Zn1814     O1819   1.984       .  S
Zn1814     O1822   1.998       .  S
Zn1814     O1825   2.023       .  S
Zn1815     O1816   1.929       .  S
Zn1815     O1823   2.012       .  S
Zn1815     O1826   1.978       .  S
Zn1815     O1827   1.965       .  S
O1817      C1829   1.271       .  A
O1818      C1830   1.278       .  A
O1819      C1831   1.271       .  A
O1820      C1829   1.274       .  A
O1821      C1831   1.277       .  A
O1822      C1830   1.271       .  A
O1823      C1832   1.271       .  A
O1824      C1833   1.278       .  A
O1825      C1832   1.273       .  A
O1826      C1833   1.271       .  A
O1827      C1834   1.267       .  A
O1828      C1834   1.278       .  A
C1829      C3154   1.483       .  S
C1830      C3317   1.490       .  S
C1831      C3174   1.474       .  S
C1832      C3134   1.474       .  S
C1833      C3187   1.484       .  S
C1834      C3144   1.483       .  S
Zn1835     O1839   1.939       .  S
Zn1835     O1840   2.013       .  S
Zn1835     O1844   1.986       .  S
Zn1835     O1851   1.979       .  S
Zn1836     O1839   1.929       .  S
Zn1836     O1841   1.963       .  S
Zn1836     O1843   2.006       .  S
Zn1836     O1847   1.978       .  S
Zn1837     O1839   1.968       .  S
Zn1837     O1842   2.079       .  S
Zn1837     O1845   2.077       .  S
Zn1837     O1848   2.037       .  S
Zn1838     O1839   1.955       .  S
Zn1838     O1846   2.030       .  S
Zn1838     O1849   2.070       .  S
Zn1838     O1850   2.050       .  S
O1840      C1852   1.272       .  A
O1841      C1853   1.267       .  A
O1842      C1854   1.282       .  A
O1843      C1852   1.271       .  A
O1844      C1854   1.269       .  A
O1845      C1853   1.282       .  A
O1846      C1855   1.277       .  A
O1847      C1856   1.269       .  A
O1848      C1855   1.275       .  A
O1849      C1856   1.281       .  A
O1850      C1857   1.278       .  A
O1851      C1857   1.271       .  A
C1852      C3207   1.485       .  S
C1853      C3114   1.468       .  S
C1854      C3124   1.500       .  S
C1855      C3094   1.499       .  S
C1856      C3284   1.488       .  S
C1857      C3107   1.487       .  S
Zn1858     O1862   1.946       .  S
Zn1858     O1863   2.004       .  S
Zn1858     O1867   2.025       .  S
Zn1858     O1874   1.982       .  S
Zn1859     O1862   1.952       .  S
Zn1859     O1864   2.049       .  S
Zn1859     O1866   2.034       .  S
Zn1859     O1870   2.004       .  S
Zn1860     O1862   1.934       .  S
Zn1860     O1865   2.002       .  S
Zn1860     O1868   1.997       .  S
Zn1860     O1871   1.960       .  S
Zn1861     O1862   1.977       .  S
Zn1861     O1869   2.057       .  S
Zn1861     O1872   2.020       .  S
Zn1861     O1873   2.060       .  S
O1863      C1875   1.274       .  A
O1864      C1876   1.278       .  A
O1865      C1877   1.271       .  A
O1866      C1875   1.276       .  A
O1867      C1877   1.274       .  A
O1868      C1876   1.271       .  A
O1869      C1878   1.278       .  A
O1870      C1879   1.272       .  A
O1871      C1878   1.267       .  A
O1872      C1879   1.273       .  A
O1873      C1880   1.280       .  A
O1874      C1880   1.269       .  A
C1875      C3117   1.479       .  S
C1876      C3237   1.495       .  S
C1877      C3157   1.479       .  S
C1878      C3104   1.467       .  S
C1879      C3074   1.481       .  S
C1880      C3084   1.491       .  S
Zn1881     O1890   1.967       .  S
Zn1881     O1897   1.935   1_545  S
Zn1882     O1885   1.953       .  S
Zn1882     O1887   2.000       .  S
Zn1882     O1889   2.051       .  S
Zn1882     O1893   1.993       .  S
Zn1883     O1885   1.967       .  S
Zn1883     O1888   2.059       .  S
Zn1883     O1891   2.032       .  S
Zn1883     O1894   2.035       .  S
Zn1884     O1885   1.973       .  S
Zn1884     O1892   2.033       .  S
Zn1884     O1895   2.063       .  S
O1886      C1898   1.267       .  A
O1887      C1899   1.274       .  A
O1888      C1900   1.279       .  A
O1889      C1898   1.276       .  A
O1891      C1899   1.277       .  A
O1892      C1901   1.275       .  A
O1893      C1902   1.270       .  A
O1894      C1901   1.275       .  A
O1895      C1902   1.280       .  A
O1896      C1903   1.279       .  A
O1897      C1903   1.264       .  A
C1898      C3064   1.491       .  S
C1899      C3044   1.488       .  S
C1900      C3054   1.490       .  S
C1901      C3024   1.496       .  S
C1902      C3277   1.491       .  S
C1903      C3034   1.479       .  S
Zn1904     O1908   1.921       .  S
Zn1904     O1909   1.963       .  S
Zn1904     O1913   1.982       .  S
Zn1904     O1920   1.990       .  S
Zn1905     O1908   1.953       .  S
Zn1905     O1910   2.028       .  S
Zn1905     O1912   2.039       .  S
Zn1905     O1916   2.061       .  S
Zn1906     O1908   1.959       .  S
Zn1906     O1911   2.066       .  S
Zn1906     O1914   1.998       .  S
Zn1906     O1917   2.034       .  S
Zn1907     O1908   1.936       .  S
Zn1907     O1915   1.988       .  S
Zn1907     O1918   2.003       .  S
Zn1907     O1919   2.020       .  S
O1909      C1921   1.268       .  A
O1910      C1922   1.276       .  A
O1911      C1923   1.278       .  A
O1912      C1921   1.278       .  A
O1913      C1923   1.267       .  A
O1914      C1922   1.271       .  A
O1915      C1924   1.271       .  A
O1916      C1925   1.278       .  A
O1917      C1924   1.278       .  A
O1918      C1925   1.272       .  A
O1919      C1926   1.274       .  A
O1920      C1926   1.270       .  A
C1921      C3037   1.479       .  S
C1922      C3014   1.489       .  S
C1923      C3224   1.481       .  S
C1924      C3047   1.477       .  S
C1925      C3004   1.481       .  S
C1926      C2997   1.467       .  S
Zn1927     O1931   1.955       .  S
Zn1927     O1932   1.997       .  S
Zn1927     O1936   1.999       .  S
Zn1927     O1943   2.044       .  S
Zn1928     O1931   1.977       .  S
Zn1928     O1933   2.029       .  S
Zn1928     O1935   2.058       .  S
Zn1928     O1939   2.064       .  S
Zn1929     O1931   1.956       .  S
Zn1929     O1934   2.022       .  S
Zn1929     O1937   2.022       .  S
Zn1929     O1940   2.049       .  S
Zn1930     O1931   1.927       .  S
Zn1930     O1938   1.994       .  S
Zn1930     O1941   1.958       .  S
Zn1930     O1942   1.978       .  S
O1932      C1944   1.271       .  A
O1933      C1945   1.275       .  A
O1934      C1946   1.276       .  A
O1935      C1944   1.278       .  A
O1936      C1946   1.273       .  A
O1937      C1945   1.274       .  A
O1938      C1947   1.270       .  A
O1939      C1948   1.281       .  A
O1940      C1947   1.277       .  A
O1941      C1948   1.268       .  A
O1942      C1949   1.268       .  A
O1943      C1949   1.276       .  A
C1944      C3364   1.487       .  S
C1945      C2954   1.479       .  S
C1946      C2977   1.484       .  S
C1947      C2987   1.490       .  S
C1948      C2967   1.478       .  S
C1949      C3017   1.489       .  S
Zn1950     O1966   2.052       .  S
Zn1951     O1954   1.926       .  S
Zn1951     O1956   1.976       .  S
Zn1951     O1958   1.966       .  S
Zn1951     O1962   1.997       .  S
Zn1952     O1954   1.953       .  S
Zn1952     O1957   2.040       .  S
Zn1952     O1960   2.049       .  S
Zn1952     O1963   2.052       .  S
Zn1953     O1961   1.978       .  S
Zn1953     O1965   1.963       .  S
O1955      C1967   1.280       .  A
O1956      C1968   1.269       .  A
O1957      C1969   1.277       .  A
O1958      C1967   1.267       .  A
O1959      C1969   1.272   1_545  A
O1960      C1968   1.279       .  A
O1962      C1971   1.271       .  A
O1963      C1970   1.279       .  A
O1964      C1971   1.270   1_545  A
O1965      C1972   1.268       .  A
O1966      C1972   1.280       .  A
C1967      C3307   1.495       .  S
C1968      C2964   1.489       .  S
C1969      C3067   1.488       .  S
C1970      C2944   1.488       .  S
C1971      C2934   1.479       .  S
C1972      C2974   1.488       .  S
Zn1973     O1982   1.965   1_565  S
Zn1973     O1989   1.941       .  S
Zn1974     O1977   1.943       .  S
Zn1974     O1979   1.979       .  S
Zn1974     O1981   2.016       .  S
Zn1974     O1985   1.967       .  S
Zn1975     O1977   1.964       .  S
Zn1975     O1980   2.083       .  S
Zn1975     O1983   2.057       .  S
Zn1975     O1986   2.035       .  S
Zn1976     O1977   1.985       .  S
Zn1976     O1984   2.051       .  S
Zn1976     O1987   2.078       .  S
O1978      C1990   1.267       .  A
O1979      C1991   1.271       .  A
O1980      C1992   1.281       .  A
O1981      C1990   1.271       .  A
O1983      C1991   1.281       .  A
O1984      C1993   1.278       .  A
O1985      C1994   1.267       .  A
O1986      C1993   1.277       .  A
O1987      C1994   1.281       .  A
O1988      C1995   1.283       .  A
O1989      C1995   1.265       .  A
C1990      C2924   1.482       .  S
C1991      C2914   1.487       .  S
C1992      C2947   1.497       .  S
C1993      C2897   1.495       .  S
C1994      C3197   1.487       .  S
C1995      C2904   1.481       .  S
Zn1996     O2000   1.955       .  S
Zn1996     O2001   2.061       .  S
Zn1996     O2005   2.019       .  S
Zn1996     O2012   2.062       .  S
Zn1997     O2000   1.924       .  S
Zn1997     O2002   1.958       .  S
Zn1997     O2004   1.982       .  S
Zn1997     O2008   1.999       .  S
Zn1998     O2000   1.955       .  S
Zn1998     O2003   2.052       .  S
Zn1998     O2006   2.072       .  S
Zn1998     O2009   2.060       .  S
Zn1999     O2000   1.927       .  S
Zn1999     O2007   1.998       .  S
Zn1999     O2010   2.018       .  S
Zn1999     O2011   1.965       .  S
O2001      C2013   1.281       .  A
O2002      C2014   1.265       .  A
O2003      C2015   1.278       .  A
O2004      C2013   1.269       .  A
O2005      C2015   1.274       .  A
O2006      C2014   1.280       .  A
O2007      C2016   1.273       .  A
O2008      C2017   1.269       .  A
O2009      C2016   1.282       .  A
O2010      C2017   1.271       .  A
O2011      C2018   1.269       .  A
O2012      C2018   1.281       .  A
C2013      C3147   1.478       .  S
C2014      C2907   1.488       .  S
C2015      C2884   1.492       .  S
C2016      C2984   1.494       .  S
C2017      C2874   1.468       .  S
C2018      C2917   1.475       .  S
Zn2019     O2023   1.942       .  S
Zn2019     O2024   2.011       .  S
Zn2019     O2028   1.955       .  S
Zn2019     O2035   2.003       .  S
Zn2020     O2023   1.943       .  S
Zn2020     O2025   1.988       .  S
Zn2020     O2027   2.020       .  S
Zn2020     O2031   1.973       .  S
Zn2021     O2023   1.982       .  S
Zn2021     O2026   2.061       .  S
Zn2021     O2029   2.082       .  S
Zn2021     O2032   2.032       .  S
Zn2022     O2023   1.975       .  S
Zn2022     O2030   2.034       .  S
Zn2022     O2033   2.064       .  S
Zn2022     O2034   2.059       .  S
O2024      C2036   1.271       .  A
O2025      C2037   1.270       .  A
O2026      C2038   1.279       .  A
O2027      C2036   1.272       .  A
O2028      C2038   1.267       .  A
O2029      C2037   1.281       .  A
O2030      C2039   1.276       .  A
O2031      C2040   1.269       .  A
O2032      C2039   1.276       .  A
O2033      C2040   1.279       .  A
O2034      C2041   1.278       .  A
O2035      C2041   1.271       .  A
C2036      C2844   1.472       .  S
C2037      C3127   1.500       .  S
C2038      C2854   1.474       .  S
C2039      C2887   1.487       .  S
C2040      C2864   1.476       .  S
C2041      C3007   1.485       .  S
Zn2042     O2058   2.071       .  S
Zn2043     O2046   1.914       .  S
Zn2043     O2048   1.964       .  S
Zn2043     O2050   1.971       .  S
Zn2043     O2054   1.972       .  S
Zn2044     O2046   1.952       .  S
Zn2044     O2049   2.026       .  S
Zn2044     O2052   2.053       .  S
Zn2044     O2055   2.054       .  S
Zn2045     O2053   1.951       .  S
Zn2045     O2057   1.966       .  S
O2047      C2059   1.280       .  A
O2048      C2060   1.268       .  A
O2049      C2061   1.276       .  A
O2050      C2059   1.267       .  A
O2051      C2061   1.272       .  A
O2052      C2060   1.279       .  A
O2054      C2063   1.268       .  A
O2055      C2062   1.279       .  A
O2056      C2063   1.271   1_545  A
O2057      C2064   1.267       .  A
O2058      C2064   1.281       .  A
C2059      C3087   1.491       .  S
C2060      C2857   1.475       .  S
C2061      C2927   1.488       .  S
C2062      C3057   1.486       .  S
C2063      C2837   1.473       .  S
C2064      C2867   1.481       .  S
Zn2065     O2069   1.920       .  S
Zn2065     O2070   1.975       .  S
Zn2065     O2074   1.973       .  S
Zn2065     O2081   1.964       .  S
Zn2066     O2069   1.929       .  S
Zn2066     O2071   1.959       .  S
Zn2066     O2073   2.002       .  S
Zn2066     O2077   1.992       .  S
Zn2067     O2069   1.969       .  S
Zn2067     O2072   2.072       .  S
Zn2067     O2075   2.047       .  S
Zn2067     O2078   2.005       .  S
Zn2068     O2069   1.955       .  S
Zn2068     O2076   2.021       .  S
Zn2068     O2079   2.067       .  S
Zn2068     O2080   2.055       .  S
O2070      C2082   1.269       .  A
O2071      C2083   1.268       .  A
O2072      C2084   1.280       .  A
O2073      C2082   1.271       .  A
O2074      C2084   1.267       .  A
O2075      C2083   1.278       .  A
O2076      C2085   1.276       .  A
O2077      C2086   1.270       .  A
O2078      C2085   1.273       .  A
O2079      C2086   1.279       .  A
O2080      C2087   1.280       .  A
O2081      C2087   1.268       .  A
C2082      C3167   1.474       .  S
C2083      C2794   1.473       .  S
C2084      C2807   1.493       .  S
C2085      C2824   1.488       .  S
C2086      C2814   1.486       .  S
C2087      C2787   1.488       .  S
Zn2088     O2092   1.924       .  S
Zn2088     O2093   1.945       .  S
Zn2088     O2097   1.986       .  S
Zn2088     O2104   1.986       .  S
Zn2089     O2092   1.974       .  S
Zn2089     O2094   2.023       .  S
Zn2089     O2096   2.076       .  S
Zn2089     O2100   2.076       .  S
Zn2090     O2092   1.951       .  S
Zn2090     O2095   2.062       .  S
Zn2090     O2098   2.011       .  S
Zn2090     O2101   2.017       .  S
Zn2091     O2092   1.951       .  S
Zn2091     O2099   1.997       .  S
Zn2091     O2102   2.013       .  S
Zn2091     O2103   2.046       .  S
O2093      C2105   1.266       .  A
O2094      C2106   1.274       .  A
O2095      C2107   1.278       .  A
O2096      C2105   1.283       .  A
O2097      C2107   1.268       .  A
O2098      C2106   1.273       .  A
O2099      C2108   1.273       .  A
O2100      C2109   1.280       .  A
O2101      C2108   1.277       .  A
O2102      C2109   1.273       .  A
O2103      C2110   1.277       .  A
O2104      C2110   1.269       .  A
C2105      C2784   1.485       .  S
C2106      C3137   1.480       .  S
C2107      C2764   1.497       .  S
C2108      C2797   1.486       .  S
C2109      C2757   1.498       .  S
C2110      C2774   1.487       .  S
Zn2111     O2115   1.945       .  S
Zn2111     O2116   1.971       .  S
Zn2111     O2120   2.021       .  S
Zn2111     O2127   1.981       .  S
Zn2112     O2115   1.984       .  S
Zn2112     O2117   2.083       .  S
Zn2112     O2119   2.086       .  S
Zn2112     O2123   2.040       .  S
Zn2113     O2115   1.924       .  S
Zn2113     O2118   1.982       .  S
Zn2113     O2121   1.950       .  S
Zn2113     O2124   1.977       .  S
Zn2114     O2115   1.958       .  S
Zn2114     O2122   2.064       .  S
Zn2114     O2125   2.032       .  S
Zn2114     O2126   2.036       .  S
O2116      C2128   1.268       .  A
O2117      C2129   1.282       .  A
O2118      C2130   1.267       .  A
O2119      C2128   1.282       .  A
O2120      C2130   1.272       .  A
O2121      C2129   1.267       .  A
O2122      C2131   1.280       .  A
O2123      C2132   1.278       .  A
O2124      C2131   1.268       .  A
O2125      C2132   1.276       .  A
O2126      C2133   1.277       .  A
O2127      C2133   1.270       .  A
C2128      C2737   1.492       .  S
C2129      C2724   1.481       .  S
C2130      C2827   1.482       .  S
C2131      C2744   1.491       .  S
C2132      C3097   1.499       .  S
C2133      C2714   1.487       .  S
Zn2134     O2138   1.927       .  S
Zn2134     O2139   1.992       .  S
Zn2134     O2143   1.972       .  S
Zn2134     O2150   2.019       .  S
Zn2135     O2138   1.954       .  S
Zn2135     O2140   1.990       .  S
Zn2135     O2142   2.052       .  S
Zn2135     O2146   2.041       .  S
Zn2136     O2138   1.954       .  S
Zn2136     O2141   2.047       .  S
Zn2136     O2144   2.045       .  S
Zn2136     O2147   2.058       .  S
Zn2137     O2138   1.922       .  S
Zn2137     O2145   1.981       .  S
Zn2137     O2148   1.967       .  S
Zn2137     O2149   2.007       .  S
O2139      C2151   1.269       .  A
O2140      C2152   1.270       .  A
O2141      C2153   1.280       .  A
O2142      C2151   1.278       .  A
O2143      C2153   1.270       .  A
O2144      C2152   1.277       .  A
O2145      C2154   1.269       .  A
O2146      C2155   1.278       .  A
O2147      C2154   1.279       .  A
O2148      C2155   1.269       .  A
O2149      C2156   1.272       .  A
O2150      C2156   1.273       .  A
C2151      C2697   1.479       .  S
C2152      C2777   1.489       .  S
C2153      C2727   1.487       .  S
C2154      C2704   1.493       .  S
C2155      C2717   1.481       .  S
C2156      C3077   1.472       .  S
Zn2157     O2161   1.936       .  S
Zn2157     O2162   2.003       .  S
Zn2157     O2166   1.971       .  S
Zn2157     O2173   2.039       .  S
Zn2158     O2161   1.965       .  S
Zn2158     O2163   2.047       .  S
Zn2158     O2165   2.063       .  S
Zn2158     O2169   2.054       .  S
Zn2159     O2161   1.969       .  S
Zn2159     O2164   2.058       .  S
Zn2159     O2167   2.012       .  S
Zn2159     O2170   2.090       .  S
Zn2160     O2161   1.919       .  S
Zn2160     O2168   1.975       .  S
Zn2160     O2171   1.970       .  S
Zn2160     O2172   2.006       .  S
O2162      C2174   1.272       .  A
O2163      C2175   1.277       .  A
O2164      C2176   1.281       .  A
O2165      C2174   1.279       .  A
O2166      C2176   1.270       .  A
O2167      C2175   1.273       .  A
O2168      C2177   1.268       .  A
O2169      C2178   1.279       .  A
O2170      C2177   1.282       .  A
O2171      C2178   1.269       .  A
O2172      C2179   1.271       .  A
O2173      C2179   1.275       .  A
C2174      C2817   1.481       .  S
C2175      C2684   1.481       .  S
C2176      C2667   1.482       .  S
C2177      C2674   1.489       .  S
C2178      C2654   1.474       .  S
C2179      C3337   1.480       .  S
Zn2180     O2184   1.965       .  S
Zn2180     O2185   1.995       .  S
Zn2180     O2189   2.068       .  S
Zn2180     O2196   2.039       .  S
Zn2181     O2184   1.958       .  S
Zn2181     O2186   2.047       .  S
Zn2181     O2188   2.028       .  S
Zn2181     O2192   2.051       .  S
Zn2182     O2184   1.927       .  S
Zn2182     O2187   1.986       .  S
Zn2182     O2190   1.973       .  S
Zn2182     O2193   2.009       .  S
Zn2183     O2184   1.935       .  S
Zn2183     O2191   2.018       .  S
Zn2183     O2194   2.000       .  S
Zn2183     O2195   1.984       .  S
O2185      C2197   1.270       .  A
O2186      C2198   1.278       .  A
O2187      C2199   1.270       .  A
O2188      C2197   1.275       .  A
O2189      C2199   1.279       .  A
O2190      C2198   1.269       .  A
O2191      C2200   1.274       .  A
O2192      C2201   1.279       .  A
O2193      C2200   1.272       .  A
O2194      C2201   1.271       .  A
O2195      C2202   1.271       .  A
O2196      C2202   1.278       .  A
C2197      C2647   1.483       .  S
C2198      C2664   1.469       .  S
C2199      C2634   1.484       .  S
C2200      C3297   1.478       .  S
C2201      C2767   1.494       .  S
C2202      C2657   1.477       .  S
Zn2203     O2207   1.973       .  S
Zn2203     O2208   2.034       .  S
Zn2203     O2212   2.069       .  S
Zn2203     O2219   2.060       .  S
Zn2204     O2207   1.971       .  S
Zn2204     O2209   2.057       .  S
Zn2204     O2211   2.030       .  S
Zn2204     O2215   2.096       .  S
Zn2205     O2207   1.931       .  S
Zn2205     O2210   1.973       .  S
Zn2205     O2213   1.954       .  S
Zn2205     O2216   2.004       .  S
Zn2206     O2207   1.920       .  S
Zn2206     O2214   1.976       .  S
Zn2206     O2217   1.955       .  S
Zn2206     O2218   1.942       .  S
O2208      C2220   1.277       .  A
O2209      C2221   1.280       .  A
O2210      C2222   1.268       .  A
O2211      C2220   1.276       .  A
O2212      C2222   1.280       .  A
O2213      C2221   1.267       .  A
O2214      C2223   1.267       .  A
O2215      C2224   1.283       .  A
O2216      C2223   1.269       .  A
O2217      C2224   1.265       .  A
O2218      C2225   1.265       .  A
O2219      C2225   1.279       .  A
C2220      C2687   1.478       .  S
C2221      C2614   1.478       .  S
C2222      C2747   1.493       .  S
C2223      C3247   1.478       .  S
C2224      C2624   1.490       .  S
C2225      C2607   1.483       .  S
Zn2226     O2230   1.924       .  S
Zn2226     O2231   1.951       .  S
Zn2226     O2235   1.981       .  S
Zn2226     O2242   1.990       .  S
Zn2227     O2230   1.975       .  S
Zn2227     O2232   2.027       .  S
Zn2227     O2234   2.064       .  S
Zn2227     O2238   2.061       .  S
Zn2228     O2230   1.955       .  S
Zn2228     O2233   2.052       .  S
Zn2228     O2236   2.018       .  S
Zn2228     O2239   2.034       .  S
Zn2229     O2230   1.943       .  S
Zn2229     O2237   1.987       .  S
Zn2229     O2240   1.985       .  S
Zn2229     O2241   2.029       .  S
O2231      C2243   1.267       .  A
O2232      C2244   1.275       .  A
O2233      C2245   1.278       .  A
O2234      C2243   1.280       .  A
O2235      C2245   1.269       .  A
O2236      C2244   1.274       .  A
O2237      C2246   1.271       .  A
O2238      C2247   1.279       .  A
O2239      C2246   1.278       .  A
O2240      C2247   1.270       .  A
O2241      C2248   1.274       .  A
O2242      C2248   1.269       .  A
C2243      C2604   1.474       .  S
C2244      C3217   1.479       .  S
C2245      C2707   1.492       .  S
C2246      C2617   1.489       .  S
C2247      C2594   1.495       .  S
C2248      C2644   1.487       .  S
Zn2249     O2258   1.957       .  S
Zn2249     O2265   1.967       .  S
Zn2250     O2253   1.940       .  S
Zn2250     O2255   1.969       .  S
Zn2250     O2257   2.010       .  S
Zn2250     O2261   1.981       .  S
Zn2251     O2253   1.979       .  S
Zn2251     O2259   2.086       .  S
Zn2251     O2262   2.050       .  S
Zn2252     O2253   1.963       .  S
Zn2252     O2260   2.025       .  S
Zn2252     O2263   2.046       .  S
Zn2252     O2264   2.070       .  S
O2254      C2266   1.269       .  A
O2255      C2267   1.267       .  A
O2256      C2268   1.280       .  A
O2257      C2266   1.271       .  A
O2258      C2268   1.266       .  A
O2259      C2267   1.282       .  A
O2260      C2269   1.276       .  A
O2261      C2270   1.271       .  A
O2262      C2269   1.279       .  A
O2263      C2270   1.277       .  A
O2264      C2271   1.280       .  A
C2266      C2584   1.487       .  S
C2267      C2627   1.492       .  S
C2268      C2554   1.465       .  S
C2269      C3027   1.497       .  S
C2270      C2564   1.478       .  S
C2271      C2577   1.493       .  S
Zn2272     O2276   1.929       .  S
Zn2272     O2277   2.001       .  S
Zn2272     O2281   1.956       .  S
Zn2272     O2288   1.999       .  S
Zn2273     O2276   1.954       .  S
Zn2273     O2278   1.985       .  S
Zn2273     O2280   2.040       .  S
Zn2273     O2284   2.010       .  S
Zn2274     O2276   1.981       .  S
Zn2274     O2279   2.067       .  S
Zn2274     O2282   2.063       .  S
Zn2274     O2285   2.015       .  S
Zn2275     O2276   1.954       .  S
Zn2275     O2283   1.996       .  S
Zn2275     O2286   2.017       .  S
Zn2275     O2287   2.043       .  S
O2277      C2289   1.271       .  A
O2278      C2290   1.269       .  A
O2279      C2291   1.280       .  A
O2280      C2289   1.276       .  A
O2281      C2291   1.267       .  A
O2282      C2290   1.278       .  A
O2283      C2292   1.271       .  A
O2284      C2293   1.274       .  A
O2285      C2292   1.273       .  A
O2286      C2293   1.275       .  A
O2287      C2294   1.276       .  A
O2288      C2294   1.271       .  A
C2289      C2547   1.492       .  S
C2290      C2597   1.475       .  S
C2291      C2567   1.474       .  S
C2292      C2994   1.477       .  S
C2293      C2557   1.490       .  S
C2294      C2534   1.486       .  S
Zn2295     O2299   1.935       .  S
Zn2295     O2300   1.983       .  S
Zn2295     O2304   1.973       .  S
Zn2295     O2311   2.024       .  S
Zn2296     O2299   1.979       .  S
Zn2296     O2301   2.012       .  S
Zn2296     O2303   2.085       .  S
Zn2296     O2307   2.051       .  S
Zn2297     O2299   1.967       .  S
Zn2297     O2302   2.066       .  S
Zn2297     O2305   2.037       .  S
Zn2297     O2308   2.071       .  S
Zn2298     O2299   1.936       .  S
Zn2298     O2306   1.996       .  S
Zn2298     O2309   1.981       .  S
Zn2298     O2310   2.026       .  S
O2300      C2312   1.269       .  A
O2301      C2313   1.272       .  A
O2302      C2314   1.281       .  A
O2303      C2312   1.282       .  A
O2304      C2314   1.270       .  A
O2305      C2313   1.277       .  A
O2306      C2315   1.271       .  A
O2307      C2316   1.279       .  A
O2308      C2315   1.281       .  A
O2309      C2316   1.271       .  A
O2310      C2317   1.274       .  A
O2311      C2317   1.273       .  A
C2312      C2677   1.487       .  S
C2313      C2544   1.487       .  S
C2314      C2514   1.491       .  S
C2315      C2524   1.499       .  S
C2316      C2504   1.477       .  S
C2317      C2957   1.484       .  S
Zn2318     O2322   1.909       .  S
Zn2318     O2323   1.975       .  S
Zn2318     O2327   1.968       .  S
Zn2318     O2334   1.988       .  S
Zn2319     O2330   2.067       .  S
Zn2320     O2322   1.953       .  S
Zn2320     O2325   2.060       .  S
Zn2320     O2328   2.018       .  S
Zn2320     O2331   2.052       .  S
Zn2321     O2329   1.985       .  S
Zn2321     O2332   1.966       .  S
O2323      C2335   1.268       .  A
O2324      C2336   1.275       .  A
O2325      C2337   1.278       .  A
O2326      C2335   1.282       .  A
O2327      C2337   1.269       .  A
O2328      C2336   1.276       .  A
O2330      C2339   1.280       .  A
O2331      C2338   1.278       .  A
O2332      C2339   1.268       .  A
O2333      C2340   1.271   1_545  A
O2334      C2340   1.270       .  A
C2335      C2637   1.485       .  S
C2336      C2587   1.486       .  S
C2337      C2507   1.479       .  S
C2338      C2494   1.485       .  S
C2339      C2517   1.470       .  S
C2340      C2937   1.478       .  S
Zn2341     O2350   1.950       .  S
Zn2341     O2357   1.974       .  S
Zn2342     O2345   1.938       .  S
Zn2342     O2347   1.970       .  S
Zn2342     O2349   2.012       .  S
Zn2342     O2353   1.982       .  S
Zn2343     O2345   1.971       .  S
Zn2343     O2351   2.077       .  S
Zn2343     O2354   2.045       .  S
Zn2344     O2345   1.954       .  S
Zn2344     O2352   2.033       .  S
Zn2344     O2355   2.042       .  S
Zn2344     O2356   2.064       .  S
O2346      C2358   1.272       .  A
O2347      C2359   1.267       .  A
O2348      C2360   1.281       .  A
O2349      C2358   1.272       .  A
O2350      C2360   1.266       .  A
O2351      C2359   1.282       .  A
O2352      C2361   1.276       .  A
O2353      C2362   1.272       .  A
O2354      C2361   1.277       .  A
O2355      C2362   1.277       .  A
O2356      C2363   1.281       .  A
C2358      C2484   1.489       .  S
C2359      C2804   1.492       .  S
C2360      C2467   1.469       .  S
C2361      C2894   1.498       .  S
C2362      C2477   1.486       .  S
C2363      C2497   1.490       .  S
Zn2364     O2368   1.989       .  S
Zn2364     O2369   2.106       .  S
Zn2364     O2373   2.022       .  S
Zn2364     O2380   2.074       .  S
Zn2365     O2368   1.944       .  S
Zn2365     O2370   1.981       .  S
Zn2365     O2372   1.978       .  S
Zn2365     O2376   2.008       .  S
Zn2366     O2368   1.962       .  S
Zn2366     O2371   2.012       .  S
Zn2366     O2374   2.033       .  S
Zn2366     O2377   2.074       .  S
Zn2367     O2368   1.938       .  S
Zn2367     O2375   2.001       .  S
Zn2367     O2378   1.994       .  S
Zn2367     O2379   1.958       .  S
O2369      C2381   1.282       .  A
O2370      C2382   1.271       .  A
O2371      C2383   1.275       .  A
O2372      C2381   1.267       .  A
O2373      C2383   1.275       .  A
O2374      C2382   1.277       .  A
O2375      C2384   1.270       .  A
O2376      C2385   1.271       .  A
O2377      C2384   1.280       .  A
O2378      C2385   1.270       .  A
O2379      C2386   1.268       .  A
O2380      C2386   1.281       .  A
C2381      C2754   1.494       .  S
C2382      C2464   1.477       .  S
C2383      C2877   1.479       .  S
C2384      C2527   1.500       .  S
C2385      C2454   1.469       .  S
C2386      C2474   1.470       .  S
Zn2387     O2391   1.946       .  S
Zn2387     O2392   1.986       .  S
Zn2387     O2396   2.019       .  S
Zn2387     O2403   1.989       .  S
Zn2388     O2391   1.968       .  S
Zn2388     O2393   2.066       .  S
Zn2388     O2395   2.069       .  S
Zn2388     O2399   2.019       .  S
Zn2389     O2391   1.921       .  S
Zn2389     O2394   1.987       .  S
Zn2389     O2397   1.940       .  S
Zn2389     O2400   1.974       .  S
Zn2390     O2391   1.954       .  S
Zn2390     O2398   2.065       .  S
Zn2390     O2401   2.020       .  S
Zn2390     O2402   2.013       .  S
O2392      C2404   1.269       .  A
O2393      C2405   1.281       .  A
O2394      C2406   1.268       .  A
O2395      C2404   1.278       .  A
O2396      C2406   1.272       .  A
O2397      C2405   1.265       .  A
O2398      C2407   1.278       .  A
O2399      C2408   1.275       .  A
O2400      C2407   1.267       .  A
O2401      C2408   1.275       .  A
O2402      C2409   1.276       .  A
O2403      C2409   1.272       .  A
C2404      C2734   1.483       .  S
C2405      C2434   1.476       .  S
C2406      C2457   1.466       .  S
C2407      C2537   1.479       .  S
C2408      C2847   1.483       .  S
C2409      C2444   1.483       .  S
Zn2410     O2414   1.917       .  S
Zn2410     O2415   1.979       .  S
Zn2410     O2419   1.959       .  S
Zn2410     O2426   1.953       .  S
Zn2411     O2416   1.958       .  S
Zn2411     O2422   1.982       .  S
Zn2412     O2420   2.040       .  S
Zn2413     O2414   1.960       .  S
Zn2413     O2421   2.026       .  S
Zn2413     O2424   2.062       .  S
Zn2413     O2425   2.057       .  S
O2415      C2427   1.268       .  A
O2416      C2428   1.268       .  A
O2417      C2429   1.280       .  A
O2418      C2427   1.268   1_545  A
O2419      C2429   1.266       .  A
O2420      C2428   1.278       .  A
O2421      C2430   1.276       .  A
O2423      C2430   1.274       .  A
O2424      C2431   1.279       .  A
O2425      C2432   1.280       .  A
O2426      C2432   1.266       .  A
C2427      C2834   1.473       .  S
C2428      C2447   1.474       .  S
C2429      C2694   1.484       .  S
C2430      C2487   1.488       .  S
C2431      C2574   1.492       .  S
C2432      C2437   1.486       .  S
C2433      C2434   1.412       .  A
C2433      C2438   1.396       .  A
C2433      F2440   1.359       .  S
C2434      C2435   1.400       .  A
C2435      C2436   1.397       .  A
C2435      F2442   1.358       .  S
C2436      C2437   1.418       .  A
C2436      F2441   1.358       .  S
C2437      C2438   1.405       .  A
C2438      F2439   1.358       .  S
C2443      C2444   1.408       .  A
C2443      C2448   1.393       .  A
C2443      F2450   1.358       .  S
C2444      C2445   1.413       .  A
C2445      C2446   1.398       .  A
C2445      F2452   1.358       .  S
C2446      C2447   1.403       .  A
C2446      F2451   1.358       .  S
C2447      C2448   1.408       .  A
C2448      F2449   1.359       .  S
C2453      C2454   1.405       .  A
C2453      C2458   1.396       .  A
C2453      F2460   1.358       .  S
C2454      C2455   1.406       .  A
C2455      C2456   1.397       .  A
C2455      F2462   1.358       .  S
C2456      C2457   1.404       .  A
C2456      F2461   1.358       .  S
C2457      C2458   1.404       .  A
C2458      F2459   1.358       .  S
C2463      C2464   1.414       .  A
C2463      C2468   1.399       .  A
C2463      F2470   1.358       .  S
C2464      C2465   1.402       .  A
C2465      C2466   1.397       .  A
C2465      F2472   1.358       .  S
C2466      C2467   1.409       .  A
C2466      F2471   1.358       .  S
C2467      C2468   1.399       .  A
C2468      F2469   1.358       .  S
C2473      C2474   1.403       .  A
C2473      C2478   1.394       .  A
C2473      F2480   1.359       .  S
C2474      C2475   1.404       .  A
C2475      C2476   1.405       .  A
C2475      F2482   1.358       .  S
C2476      C2477   1.413       .  A
C2476      F2481   1.358       .  S
C2477      C2478   1.410       .  A
C2478      F2479   1.358       .  S
C2483      C2484   1.411       .  A
C2483      C2488   1.398       .  A
C2483      F2490   1.358       .  S
C2485      C2486   1.396       .  A
C2485      F2492   1.358       .  S
C2486      C2487   1.412   1_545  A
C2486      F2491   1.358       .  S
C2488      F2489   1.358       .  S
C2493      C2498   1.399   1_655  A
C2493      F2500   1.358       .  S
C2494      C2495   1.405       .  A
C2495      C2496   1.399   1_655  A
C2495      F2502   1.358       .  S
C2496      F2501   1.358       .  S
C2497      C2498   1.406       .  A
C2498      F2499   1.358       .  S
C2503      C2504   1.405       .  A
C2503      C2508   1.394       .  A
C2503      F2510   1.358       .  S
C2504      C2505   1.409       .  A
C2505      C2506   1.405       .  A
C2505      F2512   1.358       .  S
C2506      C2507   1.408       .  A
C2506      F2511   1.358       .  S
C2507      C2508   1.408       .  A
C2508      F2509   1.358       .  S
C2513      C2514   1.415       .  A
C2513      C2518   1.396       .  A
C2513      F2520   1.358       .  S
C2514      C2515   1.411       .  A
C2515      C2516   1.404       .  A
C2515      F2522   1.357       .  S
C2516      C2517   1.404       .  A
C2516      F2521   1.358       .  S
C2517      C2518   1.401       .  A
C2518      F2519   1.359       .  S
C2523      C2524   1.415       .  A
C2523      C2528   1.403   1_655  A
C2523      F2530   1.358       .  S
C2524      C2525   1.408       .  A
C2525      C2526   1.404   1_655  A
C2525      F2532   1.358       .  S
C2526      C2527   1.416       .  A
C2526      F2531   1.358       .  S
C2527      C2528   1.407       .  A
C2528      F2529   1.358       .  S
C2533      C2534   1.405       .  A
C2533      C2538   1.400   1_655  A
C2533      F2540   1.358       .  S
C2534      C2535   1.414       .  A
C2535      C2536   1.402   1_655  A
C2535      F2542   1.358       .  S
C2536      C2537   1.402       .  A
C2536      F2541   1.358       .  S
C2537      C2538   1.409       .  A
C2538      F2539   1.358       .  S
C2543      C2544   1.404       .  A
C2543      C2548   1.398       .  A
C2543      F2550   1.358       .  S
C2544      C2545   1.412       .  A
C2545      C2546   1.403       .  A
C2545      F2552   1.358       .  S
C2546      C2547   1.409       .  A
C2546      F2551   1.358       .  S
C2547      C2548   1.413       .  A
C2548      F2549   1.358       .  S
C2553      C2554   1.400       .  A
C2553      C2558   1.400       .  A
C2553      F2560   1.358       .  S
C2554      C2555   1.402       .  A
C2555      C2556   1.398       .  A
C2555      F2562   1.358       .  S
C2556      C2557   1.412       .  A
C2556      F2561   1.358       .  S
C2557      C2558   1.415       .  A
C2558      F2559   1.358       .  S
C2563      C2564   1.410       .  A
C2563      C2568   1.404       .  A
C2563      F2570   1.358       .  S
C2564      C2565   1.406       .  A
C2565      C2566   1.393       .  A
C2565      F2572   1.358       .  S
C2566      C2567   1.406       .  A
C2566      F2571   1.359       .  S
C2567      C2568   1.405       .  A
C2568      F2569   1.358       .  S
C2573      C2574   1.405       .  A
C2573      C2578   1.399   1_455  A
C2573      F2580   1.358       .  S
C2575      C2576   1.401   1_455  A
C2575      F2582   1.358       .  S
C2576      C2577   1.405       .  A
C2576      F2581   1.358       .  S
C2578      F2579   1.358       .  S
C2583      C2588   1.399       .  A
C2583      F2590   1.358       .  S
C2584      C2585   1.410       .  A
C2585      C2586   1.399       .  A
C2585      F2592   1.358       .  S
C2586      F2591   1.358       .  S
C2587      C2588   1.409       .  A
C2588      F2589   1.358       .  S
C2593      C2594   1.412       .  A
C2593      C2598   1.405       .  A
C2593      F2600   1.358       .  S
C2594      C2595   1.416       .  A
C2595      C2596   1.398       .  A
C2595      F2602   1.358       .  S
C2596      C2597   1.400       .  A
C2596      F2601   1.358       .  S
C2597      C2598   1.406       .  A
C2598      F2599   1.358       .  S
C2603      C2604   1.400       .  A
C2603      C2608   1.398       .  A
C2603      F2610   1.358       .  S
C2604      C2605   1.410       .  A
C2605      C2606   1.397       .  A
C2605      F2612   1.358       .  S
C2613      C2614   1.402       .  A
C2613      C2618   1.398       .  A
C2613      F2620   1.358       .  S
C2614      C2615   1.410       .  A
C2615      C2616   1.397       .  A
C2615      F2622   1.359       .  S
C2616      C2617   1.409       .  A
C2616      F2621   1.358       .  S
C2617      C2618   1.416       .  A
C2618      F2619   1.358       .  S
C2623      C2624   1.416       .  A
C2623      C2628   1.402       .  A
C2623      F2630   1.358       .  S
C2624      C2625   1.403       .  A
C2625      C2626   1.403       .  A
C2625      F2632   1.358       .  S
C2626      C2627   1.416       .  A
C2626      F2631   1.358       .  S
C2627      C2628   1.404       .  A
C2628      F2629   1.358       .  S
C2633      C2634   1.413       .  A
C2633      C2638   1.402       .  A
C2633      F2640   1.358       .  S
C2634      C2635   1.402       .  A
C2635      C2636   1.403       .  A
C2635      F2642   1.358       .  S
C2636      C2637   1.414       .  A
C2636      F2641   1.359       .  S
C2637      C2638   1.402       .  A
C2638      F2639   1.357       .  S
C2643      C2644   1.413       .  A
C2643      C2648   1.398       .  A
C2643      F2650   1.358       .  S
C2644      C2645   1.407       .  A
C2645      C2646   1.398       .  A
C2645      F2652   1.358       .  S
C2646      C2647   1.411       .  A
C2646      F2651   1.358       .  S
C2647      C2648   1.405       .  A
C2648      F2649   1.358       .  S
C2653      C2654   1.406       .  A
C2653      C2658   1.395       .  A
C2653      F2660   1.358       .  S
C2654      C2655   1.406       .  A
C2655      C2656   1.401       .  A
C2655      F2662   1.358       .  S
C2656      C2657   1.408       .  A
C2656      F2661   1.358       .  S
C2657      C2658   1.407       .  A
C2658      F2659   1.358       .  S
C2663      C2668   1.395       .  A
C2665      C2666   1.402       .  A
C2666      C2667   1.408       .  A
C2666      F2671   1.357       .  S
C2667      C2668   1.412       .  A
C2668      F2669   1.358       .  S
C2673      C2674   1.403       .  A
C2673      C2678   1.404       .  A
C2673      F2680   1.358       .  S
C2674      C2675   1.415       .  A
C2675      C2676   1.403       .  A
C2675      F2682   1.358       .  S
C2676      C2677   1.401       .  A
C2676      F2681   1.357       .  S
C2677      C2678   1.415       .  A
C2678      F2679   1.359       .  S
C2683      C2684   1.409       .  A
C2683      C2688   1.400       .  A
C2683      F2690   1.358       .  S
C2684      C2685   1.406       .  A
C2685      C2686   1.403       .  A
C2685      F2692   1.358       .  S
C2686      C2687   1.408       .  A
C2686      F2691   1.358       .  S
C2687      C2688   1.403       .  A
C2688      F2689   1.358       .  S
C2693      C2694   1.414       .  A
C2693      C2698   1.398       .  A
C2693      F2700   1.359       .  S
C2694      C2695   1.403       .  A
C2695      C2696   1.405       .  A
C2695      F2702   1.358       .  S
C2696      C2697   1.413       .  A
C2696      F2701   1.358       .  S
C2697      C2698   1.398       .  A
C2698      F2699   1.358       .  S
C2703      C2704   1.416       .  A
C2703      C2708   1.400       .  A
C2703      F2710   1.358       .  S
C2704      C2705   1.407       .  A
C2705      C2706   1.399       .  A
C2705      F2712   1.358       .  S
C2706      C2707   1.414       .  A
C2706      F2711   1.358       .  S
C2707      C2708   1.407       .  A
C2708      F2709   1.358       .  S
C2713      C2714   1.407       .  A
C2713      C2718   1.396       .  A
C2713      F2720   1.358       .  S
C2714      C2715   1.415       .  A
C2715      C2716   1.398       .  A
C2715      F2722   1.358       .  S
C2716      C2717   1.404       .  A
C2716      F2721   1.358       .  S
C2717      C2718   1.411       .  A
C2718      F2719   1.358       .  S
C2723      C2724   1.411       .  A
C2723      C2728   1.398       .  A
C2723      F2730   1.359       .  S
C2724      C2725   1.401       .  A
C2725      C2726   1.402       .  A
C2725      F2732   1.358       .  S
C2728      F2729   1.358       .  S
C2733      C2734   1.409       .  A
C2733      C2738   1.409       .  A
C2733      F2740   1.358       .  S
C2734      C2735   1.403       .  A
C2735      C2736   1.397       .  A
C2735      F2742   1.358       .  S
C2736      C2737   1.413       .  A
C2736      F2741   1.359       .  S
C2737      C2738   1.410       .  A
C2738      F2739   1.357       .  S
C2743      C2744   1.415       .  A
C2743      C2748   1.401       .  A
C2743      F2750   1.358       .  S
C2744      C2745   1.404       .  A
C2745      C2746   1.399       .  A
C2745      F2752   1.358       .  S
C2746      C2747   1.416       .  A
C2746      F2751   1.358       .  S
C2747      C2748   1.406       .  A
C2748      F2749   1.358       .  S
C2753      C2754   1.409       .  A
C2753      C2758   1.401       .  A
C2753      F2760   1.358       .  S
C2754      C2755   1.409       .  A
C2755      C2756   1.413       .  A
C2755      F2762   1.357       .  S
C2756      C2757   1.413       .  A
C2756      F2761   1.358       .  S
C2757      C2758   1.408       .  A
C2758      F2759   1.358       .  S
C2763      C2764   1.408       .  A
C2763      C2768   1.403       .  A
C2763      F2770   1.358       .  S
C2764      C2765   1.416       .  A
C2765      C2766   1.400       .  A
C2765      F2772   1.358       .  S
C2766      C2767   1.406       .  A
C2766      F2771   1.358       .  S
C2767      C2768   1.415       .  A
C2768      F2769   1.358       .  S
C2773      C2774   1.405       .  A
C2773      C2778   1.398       .  A
C2773      F2780   1.358       .  S
C2774      C2775   1.413       .  A
C2775      C2776   1.401       .  A
C2775      F2782   1.358       .  S
C2776      C2777   1.408       .  A
C2776      F2781   1.358       .  S
C2777      C2778   1.413       .  A
C2778      F2779   1.358       .  S
C2783      C2784   1.417       .  A
C2783      C2788   1.397       .  A
C2783      F2790   1.359       .  S
C2784      C2785   1.402       .  A
C2785      C2786   1.398       .  A
C2785      F2792   1.358       .  S
C2793      C2794   1.403       .  A
C2793      C2798   1.399       .  A
C2793      F2800   1.358       .  S
C2794      C2795   1.406       .  A
C2795      C2796   1.394       .  A
C2795      F2802   1.359       .  S
C2796      C2797   1.410       .  A
C2796      F2801   1.358       .  S
C2797      C2798   1.415       .  A
C2798      F2799   1.358       .  S
C2803      C2804   1.416       .  A
C2803      C2808   1.403       .  A
C2803      F2810   1.358       .  S
C2804      C2805   1.405       .  A
C2805      C2806   1.401       .  A
C2805      F2812   1.358       .  S
C2806      C2807   1.415       .  A
C2806      F2811   1.358       .  S
C2807      C2808   1.406       .  A
C2808      F2809   1.358       .  S
C2813      C2814   1.413       .  A
C2813      C2818   1.401       .  A
C2813      F2820   1.358       .  S
C2814      C2815   1.405       .  A
C2815      C2816   1.404       .  A
C2815      F2822   1.358       .  S
C2816      C2817   1.410       .  A
C2816      F2821   1.358       .  S
C2817      C2818   1.402       .  A
C2818      F2819   1.358       .  S
C2823      C2824   1.409       .  A
C2823      C2828   1.395       .  A
C2823      F2830   1.358       .  S
C2824      C2825   1.414       .  A
C2825      C2826   1.399       .  A
C2825      F2832   1.358       .  S
C2826      C2827   1.407       .  A
C2826      F2831   1.358       .  S
C2827      C2828   1.409       .  A
C2828      F2829   1.358       .  S
C2833      C2834   1.407       .  A
C2833      C2838   1.391       .  A
C2833      F2840   1.358       .  S
C2834      C2835   1.408   1_565  A
C2835      C2836   1.393       .  A
C2835      F2842   1.358       .  S
C2836      C2837   1.407   1_545  A
C2836      F2841   1.358       .  S
C2837      C2838   1.408       .  A
C2838      F2839   1.358       .  S
C2843      C2844   1.404       .  A
C2843      C2848   1.399       .  A
C2843      F2850   1.358       .  S
C2844      C2845   1.402       .  A
C2845      C2846   1.399       .  A
C2845      F2852   1.358       .  S
C2846      C2847   1.410       .  A
C2846      F2851   1.358       .  S
C2847      C2848   1.409       .  A
C2848      F2849   1.358       .  S
C2853      C2854   1.407       .  A
C2853      C2858   1.395       .  A
C2853      F2860   1.359       .  S
C2854      C2855   1.405       .  A
C2855      C2856   1.401       .  A
C2855      F2862   1.357       .  S
C2856      C2857   1.406       .  A
C2856      F2861   1.357       .  S
C2857      C2858   1.407       .  A
C2858      F2859   1.359       .  S
C2863      C2864   1.411       .  A
C2863      C2868   1.400       .  A
C2863      F2870   1.358       .  S
C2864      C2865   1.400       .  A
C2865      C2866   1.401       .  A
C2865      F2872   1.358       .  S
C2866      C2867   1.415       .  A
C2866      F2871   1.359       .  S
C2867      C2868   1.401       .  A
C2868      F2869   1.357       .  S
C2873      C2874   1.403       .  A
C2873      C2878   1.401   1_556  A
C2873      F2880   1.358       .  S
C2874      C2875   1.402       .  A
C2875      C2876   1.396   1_556  A
C2875      F2882   1.358       .  S
C2876      C2877   1.408       .  A
C2876      F2881   1.358       .  S
C2877      C2878   1.409       .  A
C2878      F2879   1.358       .  S
C2883      C2884   1.409       .  A
C2883      C2888   1.403       .  A
C2883      F2890   1.358       .  S
C2884      C2885   1.412       .  A
C2885      C2886   1.403       .  A
C2885      F2892   1.358       .  S
C2886      C2887   1.407       .  A
C2886      F2891   1.358       .  S
C2887      C2888   1.408       .  A
C2888      F2889   1.358       .  S
C2893      C2894   1.412       .  A
C2893      C2898   1.405   1_554  A
C2893      F2900   1.358       .  S
C2894      C2895   1.411       .  A
C2895      C2896   1.403   1_554  A
C2895      F2902   1.358       .  S
C2896      C2897   1.410       .  A
C2896      F2901   1.358       .  S
C2897      C2898   1.409       .  A
C2898      F2899   1.358       .  S
C2903      C2904   1.414       .  A
C2903      C2908   1.399       .  A
C2903      F2910   1.359       .  S
C2904      C2905   1.399       .  A
C2905      C2906   1.398       .  A
C2905      F2912   1.358       .  S
C2906      C2907   1.419       .  A
C2906      F2911   1.358       .  S
C2907      C2908   1.404       .  A
C2908      F2909   1.358       .  S
C2913      C2914   1.415       .  A
C2913      C2918   1.400       .  A
C2913      F2920   1.358       .  S
C2914      C2915   1.408       .  A
C2915      C2916   1.398       .  A
C2915      F2922   1.358       .  S
C2916      C2917   1.407       .  A
C2916      F2921   1.358       .  S
C2917      C2918   1.402       .  A
C2918      F2919   1.358       .  S
C2923      C2924   1.407       .  A
C2923      C2928   1.398       .  A
C2923      F2930   1.358       .  S
C2925      C2926   1.398       .  A
C2925      F2932   1.358       .  S
C2926      C2927   1.409       .  A
C2926      F2931   1.358       .  S
C2928      F2929   1.358       .  S
C2933      C2934   1.408       .  A
C2933      C2938   1.394   1_556  A
C2933      F2940   1.358       .  S
C2934      C2935   1.409   1_565  A
C2935      C2936   1.396   1_556  A
C2936      C2937   1.408   1_545  A
C2937      C2938   1.408       .  A
C2938      F2939   1.358       .  S
C2943      C2948   1.402   1_655  A
C2943      F2950   1.358       .  S
C2944      C2945   1.405       .  A
C2945      C2946   1.396   1_655  A
C2945      F2952   1.358       .  S
C2946      F2951   1.358       .  S
C2947      C2948   1.406       .  A
C2948      F2949   1.358       .  S
C2953      C2954   1.405       .  A
C2953      C2958   1.401   1_556  A
C2953      F2960   1.358       .  S
C2954      C2955   1.406       .  A
C2955      C2956   1.402   1_556  A
C2955      F2962   1.358       .  S
C2956      C2957   1.408       .  A
C2956      F2961   1.358       .  S
C2957      C2958   1.409       .  A
C2958      F2959   1.358       .  S
C2963      C2964   1.417       .  A
C2963      C2968   1.399       .  A
C2963      F2970   1.358       .  S
C2964      C2965   1.407       .  A
C2965      C2966   1.397       .  A
C2965      F2972   1.358       .  S
C2966      C2967   1.410       .  A
C2966      F2971   1.359       .  S
C2967      C2968   1.401       .  A
C2968      F2969   1.358       .  S
C2973      C2974   1.407       .  A
C2973      C2978   1.399       .  A
C2973      F2980   1.358       .  S
C2974      C2975   1.416       .  A
C2975      C2976   1.396       .  A
C2975      F2982   1.358       .  S
C2976      C2977   1.404       .  A
C2976      F2981   1.358       .  S
C2977      C2978   1.412       .  A
C2978      F2979   1.358       .  S
C2983      C2984   1.415       .  A
C2983      C2988   1.401   1_455  A
C2983      F2990   1.358       .  S
C2984      C2985   1.408       .  A
C2985      C2986   1.400   1_455  A
C2985      F2992   1.358       .  S
C2986      C2987   1.412       .  A
C2986      F2991   1.358       .  S
C2987      C2988   1.407       .  A
C2988      F2989   1.358       .  S
C2993      C2994   1.410       .  A
C2993      C2998   1.396       .  A
C2993      F3000   1.358       .  S
C2994      C2995   1.408       .  A
C2995      C2996   1.397       .  A
C2995      F3002   1.358       .  S
C2996      C2997   1.404       .  A
C2996      F3001   1.358       .  S
C2997      C2998   1.402       .  A
C2998      F2999   1.358       .  S
C3003      C3004   1.403       .  A
C3003      C3008   1.403   1_655  A
C3003      F3010   1.358       .  S
C3004      C3005   1.409       .  A
C3005      C3006   1.402   1_655  A
C3005      F3012   1.358       .  S
C3006      C3007   1.404       .  A
C3006      F3011   1.358       .  S
C3007      C3008   1.413       .  A
C3008      F3009   1.358       .  S
C3013      C3014   1.414       .  A
C3013      C3018   1.400       .  A
C3013      F3020   1.358       .  S
C3014      C3015   1.407       .  A
C3015      C3016   1.396       .  A
C3015      F3022   1.358       .  S
C3016      C3017   1.413       .  A
C3016      F3021   1.358       .  S
C3017      C3018   1.407       .  A
C3018      F3019   1.358       .  S
C3023      C3024   1.411       .  A
C3023      C3028   1.403       .  A
C3023      F3030   1.358       .  S
C3024      C3025   1.410       .  A
C3025      C3026   1.403       .  A
C3025      F3032   1.358       .  S
C3026      C3027   1.412       .  A
C3026      F3031   1.358       .  S
C3027      C3028   1.410       .  A
C3028      F3029   1.358       .  S
C3033      C3034   1.402       .  A
C3033      C3038   1.396       .  A
C3033      F3040   1.358       .  S
C3034      C3035   1.415       .  A
C3035      C3036   1.393       .  A
C3035      F3042   1.359       .  S
C3036      C3037   1.402       .  A
C3036      F3041   1.358       .  S
C3037      C3038   1.415       .  A
C3038      F3039   1.358       .  S
C3043      C3044   1.412       .  A
C3043      C3048   1.400       .  A
C3043      F3050   1.358       .  S
C3044      C3045   1.411       .  A
C3045      C3046   1.397       .  A
C3045      F3052   1.358       .  S
C3046      C3047   1.404       .  A
C3046      F3051   1.358       .  S
C3047      C3048   1.407       .  A
C3048      F3049   1.358       .  S
C3053      C3058   1.397   1_655  A
C3053      F3060   1.358       .  S
C3054      C3055   1.405       .  A
C3055      C3056   1.397   1_655  A
C3055      F3062   1.358       .  S
C3056      F3061   1.358       .  S
C3057      C3058   1.405       .  A
C3058      F3059   1.358       .  S
C3063      C3064   1.413       .  A
C3063      F3070   1.358       .  S
C3064      C3065   1.407       .  A
C3065      C3066   1.401       .  A
C3065      F3072   1.358       .  S
C3066      F3071   1.358       .  S
C3067      C3068   1.405       .  A
C3068      F3069   1.358       .  S
C3073      C3074   1.409       .  A
C3073      C3078   1.397       .  A
C3073      F3080   1.358       .  S
C3074      C3075   1.409       .  A
C3075      C3076   1.400       .  A
C3075      F3082   1.358       .  S
C3076      C3077   1.404       .  A
C3076      F3081   1.358       .  S
C3077      C3078   1.404       .  A
C3078      F3079   1.358       .  S
C3083      C3084   1.406       .  A
C3083      C3088   1.399       .  A
C3083      F3090   1.358       .  S
C3084      C3085   1.415       .  A
C3085      C3086   1.402       .  A
C3085      F3092   1.358       .  S
C3086      C3087   1.406       .  A
C3086      F3091   1.358       .  S
C3087      C3088   1.415       .  A
C3088      F3089   1.358       .  S
C3093      C3094   1.411       .  A
C3093      C3098   1.401       .  A
C3093      F3100   1.358       .  S
C3094      C3095   1.413       .  A
C3095      C3096   1.404       .  A
C3095      F3102   1.358       .  S
C3096      C3097   1.411       .  A
C3096      F3101   1.358       .  S
C3097      C3098   1.412       .  A
C3098      F3099   1.357       .  S
C3103      C3104   1.401       .  A
C3103      C3108   1.395       .  A
C3103      F3110   1.359       .  S
C3104      C3105   1.403       .  A
C3105      C3106   1.403       .  A
C3105      F3112   1.358       .  S
C3106      C3107   1.412       .  A
C3106      F3111   1.357       .  S
C3107      C3108   1.413       .  A
C3108      F3109   1.358       .  S
C3113      C3114   1.399       .  A
C3113      C3118   1.399       .  A
C3113      F3120   1.358       .  S
C3114      C3115   1.404       .  A
C3115      C3116   1.402       .  A
C3115      F3122   1.358       .  S
C3123      C3124   1.417       .  A
C3123      C3128   1.405       .  A
C3123      F3130   1.358       .  S
C3124      C3125   1.406       .  A
C3125      C3126   1.402       .  A
C3125      F3132   1.358       .  S
C3126      C3127   1.416       .  A
C3126      F3131   1.358       .  S
C3127      C3128   1.408       .  A
C3128      F3129   1.358       .  S
C3133      C3134   1.403       .  A
C3133      C3138   1.398   1_556  A
C3133      F3140   1.358       .  S
C3134      C3135   1.405       .  A
C3135      C3136   1.401   1_556  A
C3135      F3142   1.358       .  S
C3136      C3137   1.409       .  A
C3136      F3141   1.358       .  S
C3137      C3138   1.408       .  A
C3138      F3139   1.358       .  S
C3143      C3144   1.413       .  A
C3143      C3148   1.395       .  A
C3143      F3150   1.358       .  S
C3144      C3145   1.404       .  A
C3145      C3146   1.405       .  A
C3145      F3152   1.358       .  S
C3146      C3147   1.414       .  A
C3146      F3151   1.359       .  S
C3147      C3148   1.398       .  A
C3148      F3149   1.358       .  S
C3153      C3154   1.409       .  A
C3153      C3158   1.398       .  A
C3153      F3160   1.358       .  S
C3154      C3155   1.410       .  A
C3155      C3156   1.399       .  A
C3155      F3162   1.358       .  S
C3156      C3157   1.406       .  A
C3156      F3161   1.358       .  S
C3157      C3158   1.407       .  A
C3158      F3159   1.358       .  S
C3163      C3164   1.407       .  A
C3163      C3168   1.390   1_556  A
C3163      F3170   1.359       .  S
C3164      C3165   1.407       .  A
C3165      C3166   1.396   1_556  A
C3165      F3172   1.358       .  S
C3166      C3167   1.408       .  A
C3166      F3171   1.358       .  S
C3167      C3168   1.407       .  A
C3168      F3169   1.359       .  S
C3173      C3174   1.404       .  A
C3173      C3178   1.394       .  A
C3173      F3180   1.358       .  S
C3174      C3175   1.409       .  A
C3175      C3176   1.402       .  A
C3175      F3182   1.358       .  S
C3183      C3184   1.404       .  A
C3183      C3188   1.403       .  A
C3183      F3190   1.358       .  S
C3184      C3185   1.400       .  A
C3185      C3186   1.394       .  A
C3185      F3192   1.358       .  S
C3186      C3187   1.411       .  A
C3186      F3191   1.358       .  S
C3187      C3188   1.411       .  A
C3188      F3189   1.358       .  S
C3193      C3194   1.414       .  A
C3193      C3198   1.402       .  A
C3193      F3200   1.358       .  S
C3194      C3195   1.404       .  A
C3195      C3196   1.401       .  A
C3195      F3202   1.358       .  S
C3196      C3197   1.413       .  A
C3196      F3201   1.358       .  S
C3197      C3198   1.405       .  A
C3198      F3199   1.358       .  S
C3203      C3204   1.412       .  A
C3203      C3208   1.397       .  A
C3203      F3210   1.358       .  S
C3204      C3205   1.410       .  A
C3205      C3206   1.398       .  A
C3205      F3212   1.358       .  S
C3206      C3207   1.409       .  A
C3206      F3211   1.358       .  S
C3207      C3208   1.407       .  A
C3208      F3209   1.358       .  S
C3213      C3214   1.406       .  A
C3213      C3218   1.400       .  A
C3213      F3220   1.358       .  S
C3214      C3215   1.407       .  A
C3215      C3216   1.400       .  A
C3215      F3222   1.358       .  S
C3216      C3217   1.407       .  A
C3216      F3221   1.358       .  S
C3217      C3218   1.407       .  A
C3218      F3219   1.358       .  S
C3223      C3224   1.399       .  A
C3223      C3228   1.400       .  A
C3223      F3230   1.358       .  S
C3224      C3225   1.412       .  A
C3225      C3226   1.404       .  A
C3225      F3232   1.358       .  S
C3226      C3227   1.405       .  A
C3226      F3231   1.358       .  S
C3227      C3228   1.416       .  A
C3228      F3229   1.358       .  S
C3233      C3234   1.415       .  A
C3233      C3238   1.400       .  A
C3233      F3240   1.358       .  S
C3234      C3235   1.408       .  A
C3235      C3236   1.402       .  A
C3235      F3242   1.358       .  S
C3236      C3237   1.415       .  A
C3236      F3241   1.358       .  S
C3237      C3238   1.408       .  A
C3238      F3239   1.358       .  S
C3243      C3244   1.408       .  A
C3243      C3248   1.397       .  A
C3243      F3250   1.358       .  S
C3244      C3245   1.407       .  A
C3245      C3246   1.392       .  A
C3245      F3252   1.358       .  S
C3246      C3247   1.409       .  A
C3246      F3251   1.358       .  S
C3247      C3248   1.408       .  A
C3248      F3249   1.358       .  S
C3253      C3258   1.393       .  A
C3255      C3256   1.405       .  A
C3256      C3257   1.410       .  A
C3256      F3261   1.358       .  S
C3257      C3258   1.409       .  A
C3258      F3259   1.358       .  S
C3263      C3264   1.406       .  A
C3263      C3268   1.393       .  A
C3263      F3270   1.358       .  S
C3264      C3265   1.409       .  A
C3265      C3266   1.404       .  A
C3265      F3272   1.358       .  S
C3266      C3267   1.406       .  A
C3266      F3271   1.358       .  S
C3267      C3268   1.406       .  A
C3268      F3269   1.359       .  S
C3273      C3274   1.406       .  A
C3273      C3278   1.404       .  A
C3273      F3280   1.357       .  S
C3274      C3275   1.414       .  A
C3275      C3276   1.402       .  A
C3275      F3282   1.358       .  S
C3276      C3277   1.406       .  A
C3276      F3281   1.358       .  S
C3277      C3278   1.413       .  A
C3278      F3279   1.358       .  S
C3283      C3284   1.406       .  A
C3283      C3288   1.401       .  A
C3283      F3290   1.358       .  S
C3284      C3285   1.413       .  A
C3285      C3286   1.400       .  A
C3285      F3292   1.358       .  S
C3286      C3287   1.406       .  A
C3286      F3291   1.358       .  S
C3287      C3288   1.413       .  A
C3288      F3289   1.358       .  S
C3293      C3294   1.405       .  A
C3293      C3298   1.396   1_556  A
C3293      F3300   1.358       .  S
C3294      C3295   1.405       .  A
C3295      C3296   1.400   1_556  A
C3295      F3302   1.358       .  S
C3296      C3297   1.408       .  A
C3296      F3301   1.358       .  S
C3297      C3298   1.407       .  A
C3298      F3299   1.358       .  S
C3303      C3304   1.416       .  A
C3303      C3308   1.404       .  A
C3303      F3310   1.358       .  S
C3304      C3305   1.406       .  A
C3305      C3306   1.398       .  A
C3305      F3312   1.358       .  S
C3306      C3307   1.416       .  A
C3306      F3311   1.358       .  S
C3307      C3308   1.407       .  A
C3308      F3309   1.358       .  S
C3313      C3314   1.406       .  A
C3313      C3318   1.400       .  A
C3313      F3320   1.358       .  S
C3314      C3315   1.413       .  A
C3315      C3316   1.402       .  A
C3315      F3322   1.358       .  S
C3316      C3317   1.406       .  A
C3316      F3321   1.358       .  S
C3317      C3318   1.413       .  A
C3318      F3319   1.358       .  S
C3323      C3324   1.409       .  A
C3323      C3328   1.400       .  A
C3323      F3330   1.358       .  S
C3324      C3325   1.410       .  A
C3325      C3326   1.397       .  A
C3325      F3332   1.358       .  S
C3326      C3327   1.409       .  A
C3326      F3331   1.358       .  S
C3327      C3328   1.412       .  A
C3328      F3329   1.358       .  S
C3333      C3334   1.409       .  A
C3333      C3338   1.400   1_556  A
C3333      F3340   1.358       .  S
C3334      C3335   1.407       .  A
C3335      C3336   1.401   1_556  A
C3335      F3342   1.358       .  S
C3336      C3337   1.408       .  A
C3336      F3341   1.358       .  S
C3337      C3338   1.405       .  A
C3338      F3339   1.358       .  S
C3343      C3344   1.403       .  A
C3343      C3348   1.392       .  A
C3343      F3350   1.358       .  S
C3344      C3345   1.410       .  A
C3345      C3346   1.405       .  A
C3345      F3352   1.358       .  S
C3346      C3347   1.405       .  A
C3346      F3351   1.358       .  S
C3347      C3348   1.408       .  A
C3348      F3349   1.359       .  S
C3353      C3354   1.403       .  A
C3353      C3358   1.402       .  A
C3353      F3360   1.358       .  S
C3354      C3355   1.411       .  A
C3355      C3356   1.395       .  A
C3355      F3362   1.358       .  S
C3356      F3361   1.358       .  S
C3363      C3364   1.415       .  A
C3363      C3368   1.401       .  A
C3363      F3370   1.358       .  S
C3364      C3365   1.405       .  A
C3365      C3366   1.403       .  A
C3365      F3372   1.358       .  S
C3366      C3367   1.410       .  A
C3366      F3371   1.359       .  S
C3367      C3368   1.399       .  A
C3368      F3369   1.358       .  S
C3373      C3374   1.407       .  A
C3373      C3378   1.402       .  A
C3373      F3380   1.358       .  S
C3374      C3375   1.411       .  A
C3375      C3376   1.398       .  A
C3375      F3382   1.358       .  S
C3376      C3377   1.405       .  A
C3376      F3381   1.358       .  S
C3377      C3378   1.412       .  A
C3378      F3379   1.358       .  S
C3383      C3384   1.409       .  A
C3383      C3388   1.400       .  A
C3383      F3390   1.358       .  S
C3384      C3385   1.410       .  A
C3385      C3386   1.401       .  A
C3385      F3392   1.358       .  S
C3386      C3387   1.406       .  A
C3386      F3391   1.358       .  S
C3387      C3388   1.408       .  A
C3388      F3389   1.358       .  S
