geometry optimzed in LAMMPS
_audit_creation_date              2020-12-01 
_audit_creation_method            'lammps2cif' 
_symmetry_space_group_name_H-M    'P1' 
_symmetry_Int_Tables_number       1 
_symmetry_cell_setting            triclinic 
loop_ 
_symmetry_equiv_pos_as_xyz 
  x,y,z 
_cell_length_a                    39.92335213 
_cell_length_b                    42.984118045771375 
_cell_length_c                    35.618305402804154 
_cell_angle_alpha                 89.84098640508509 
_cell_angle_beta                  90.07300859468612 
_cell_angle_gamma                 89.83959650808727 
loop_ 
_atom_site_label 
_atom_site_type_symbol 
_atom_site_fract_x 
_atom_site_fract_y 
_atom_site_fract_z 
_atom_site_charge 
Fe1        Fe  0.04062852  0.07559952  0.89408014     1.65800
Fe2        Fe  0.10673699  0.11834523  0.87376500     1.73200
Fe3        Fe  0.06721953  0.12705225  0.95548458     1.54400
O4          O  0.02125477  0.14300773  0.94108793    -0.82300
O5          O  0.14042387  0.12686125  0.91948083    -0.80600
O6          O  0.49936602  0.10075895  0.92489458    -0.84800
O7          O  0.05880542  0.05220405  0.93842905    -0.79700
O8          O  0.08927713  0.16913472  0.93555801    -0.81400
O9          O  0.12380238  0.07370431  0.87570612    -0.84200
C10         C  0.04622780  0.05839127  0.96959957     0.96600
C11         C  0.49642707  0.12773790  0.93994118     1.04000
O12         O  0.07093421  0.10806322  0.90692306    -1.13200
O13         O  0.07517082  0.11111618  0.82546888    -0.75600
O14         O  0.02474342  0.09914168  0.84837776    -0.79100
O15         O  0.04504420  0.08665023  0.98090660    -0.79800
C16         C  0.04320916  0.10771528  0.82146258     0.95500
O17         O  0.07597617  0.05033670  0.86326373    -0.77700
O18         O  0.09167487  0.16353032  0.87346482    -0.82900
C19         C  0.13921894  0.12044600  0.95478369     0.98100
C20         C  0.09527527  0.17992097  0.90259674     1.04000
O21         O  0.11275599  0.11079596  0.97023057    -0.78600
C22         C  0.10714642  0.04918142  0.87080164     1.02300
Fe23       Fe  0.47510714  0.44369319  0.10386647     1.65800
Fe24       Fe  0.40867436  0.40180266  0.12588034     1.73200
Fe25       Fe  0.44752261  0.39140031  0.04382601     1.54400
O26         O  0.46956844  0.43136189  0.01714368    -0.82300
O27         O  0.42240337  0.35654166  0.12690400    -0.80600
O28         O  0.45654749  0.46633589  0.05923631    -0.84800
O29         O  0.01284852  0.42039005  0.06955736    -0.79700
O30         O  0.40179781  0.40765403  0.02966198    -0.81400
O31         O  0.44114181  0.40845312  0.17328220    -0.84200
C32         C  0.01625523  0.39352214  0.05433070     0.96600
C33         C  0.46888483  0.45972807  0.02807138     1.04000
O34         O  0.44443521  0.41110735  0.09212308    -1.13200
O35         O  0.39247563  0.44665051  0.12348456    -0.75600
O36         O  0.44048376  0.47016771  0.13457732    -0.79100
O37         O  0.49366460  0.37546546  0.05739253    -0.79800
C38         C  0.40910212  0.47121132  0.12814699     0.95500
O39         O  0.49126960  0.42075742  0.14991624    -0.77700
O40         O  0.37415056  0.39320285  0.08120696    -0.82900
C41         C  0.41935543  0.33957245  0.09822469     0.98100
C42         C  0.37529269  0.39891566  0.04579668     1.04000
O43         O  0.42589637  0.34952315  0.06501341    -0.78600
C44         C  0.47319557  0.41135524  0.17677312     1.02300
Fe45       Fe  0.22812278  0.32569310  0.89495697     1.65800
Fe46       Fe  0.15934231  0.36464974  0.87210381     1.73200
Fe47       Fe  0.19935776  0.37960470  0.95279634     1.54400
O48         O  0.22178751  0.34088335  0.98140943    -0.82300
O49         O  0.17155547  0.41023098  0.86868364    -0.80600
O50         O  0.21266322  0.30290952  0.94093874    -0.84800
O51         O  0.26644567  0.34877340  0.92530864    -0.79700
O52         O  0.15396317  0.36444452  0.96957102    -0.81400
O53         O  0.19100888  0.35738399  0.82448159    -0.84200
C54         C  0.26909778  0.37604218  0.93933734     0.96600
C55         C  0.22197068  0.31197737  0.97267072     1.04000
O56         O  0.19567475  0.35722799  0.90617085    -1.13200
O57         O  0.14498585  0.31925830  0.87550320    -0.75600
O58         O  0.19440681  0.29723538  0.86602410    -0.79100
O59         O  0.24518019  0.39525943  0.93729957    -0.79800
C60         C  0.16290504  0.29529733  0.87118252     0.95500
O61         O  0.24207770  0.34851437  0.84776914    -0.77700
O62         O  0.12511858  0.37367632  0.91691830    -0.82900
C63         C  0.16881424  0.42852571  0.89617641     0.98100
C64         C  0.12681192  0.37054632  0.95279129     1.04000
O65         O  0.17685635  0.42023610  0.92961985    -0.78600
C66         C  0.22306771  0.35573370  0.82062034     1.02300
Fe67       Fe  0.28888473  0.19352435  0.10559260     1.65800
Fe68       Fe  0.35657225  0.15252530  0.12673433     1.73200
Fe69       Fe  0.31637109  0.14084320  0.04575496     1.54400
O70         O  0.27043701  0.12548615  0.06066216    -0.82300
O71         O  0.39071942  0.14393484  0.08151447    -0.80600
O72         O  0.24988869  0.17210705  0.07397503    -0.84800
O73         O  0.30607624  0.21708493  0.06095493    -0.79700
O74         O  0.33792574  0.09896037  0.06726036    -0.81400
O75         O  0.37185779  0.19759185  0.12401164    -0.84200
C76         C  0.29555007  0.20952829  0.02919696     0.96600
C77         C  0.24682982  0.14504549  0.05934579     1.04000
O78         O  0.32028216  0.16138619  0.09333996    -1.13200
O79         O  0.32465068  0.15946842  0.17454156    -0.75600
O80         O  0.27373374  0.16977680  0.15150119    -0.79100
O81         O  0.29461355  0.18093528  0.01908339    -0.79800
C82         C  0.29258771  0.16176397  0.17848393     0.95500
O83         O  0.32344571  0.21988900  0.13626341    -0.77700
O84         O  0.34354614  0.10706289  0.12864259    -0.82900
C85         C  0.38891789  0.14879581  0.04590355     0.98100
C86         C  0.34516740  0.08929959  0.10046088     1.04000
O87         O  0.36184024  0.15616990  0.02983343    -0.78600
C88         C  0.35462691  0.22185917  0.12907458     1.02300
Fe89       Fe  0.47248501  0.06807126  0.60199541     1.65800
Fe90       Fe  0.40763790  0.11187970  0.62428762     1.73200
Fe91       Fe  0.44497047  0.12050366  0.54111397     1.54400
O92         O  0.99282359  0.13627638  0.55765387    -0.82300
O93         O  0.37271114  0.12177649  0.58040587    -0.80600
O94         O  0.01165547  0.08900744  0.57171808    -0.84800
O95         O  0.45274928  0.04520541  0.55826465    -0.79700
O96         O  0.42503201  0.16348698  0.56215783    -0.81400
O97         O  0.38969515  0.06730417  0.62297945    -0.84200
C98         C  0.46485780  0.05126999  0.52678337     0.96600
C99         C  0.01559708  0.11574967  0.55631825     1.04000
O100        O  0.44234864  0.10119423  0.58984955    -1.13200
O101        O  0.44037489  0.10442166  0.67125931    -0.75600
O102        O  0.49007174  0.09144773  0.64723654    -0.79100
O103        O  0.46522784  0.07950002  0.51503147    -0.79800
C104        C  0.47244498  0.10135867  0.67423707     0.95500
O105        O  0.43747632  0.04326394  0.63407413    -0.77700
O106        O  0.42373855  0.15640749  0.62401303    -0.82900
C107        C  0.37246266  0.11522124  0.54526680     0.98100
C108        C  0.41973672  0.17367593  0.59557390     1.04000
O109        O  0.39822742  0.10577481  0.52817035    -0.78600
C110        C  0.40606760  0.04239851  0.62764569     1.02300
Fe111      Fe  0.03876444  0.43762118  0.39265936     1.65800
Fe112      Fe  0.10368872  0.39411327  0.36961317     1.73200
Fe113      Fe  0.06662386  0.38532458  0.45279933     1.54400
O114        O  0.04744807  0.42665558  0.47925123    -0.82300
O115        O  0.08743248  0.34960110  0.36941797    -0.80600
O116        O  0.05852685  0.46125847  0.43564188    -0.84800
O117        O  0.49844297  0.41506015  0.42775909    -0.79700
O118        O  0.11342373  0.39958559  0.46563420    -0.81400
O119        O  0.07101618  0.40241874  0.32282288    -0.84200
C120        C  0.49370981  0.38776656  0.44129838     0.96600
C121        C  0.04862973  0.45507008  0.46806722     1.04000
O122        O  0.06925026  0.40478649  0.40441091    -1.13200
O123        O  0.12155647  0.43855531  0.37147815    -0.75600
O124        O  0.07359919  0.46239058  0.35998291    -0.79100
O125        O  0.01962012  0.37082411  0.44063377    -0.79800
C126        C  0.10505047  0.46331095  0.36638189     0.95500
O127        O  0.02132127  0.41368973  0.34778294    -0.77700
O128        O  0.13866992  0.38365896  0.41321267    -0.82900
C129        C  0.09100901  0.33244309  0.39802330     0.98100
C130        C  0.13899619  0.38989625  0.44842675     1.04000
O131        O  0.08579086  0.34253220  0.43141576    -0.78600
C132        C  0.03893168  0.40531011  0.32005161     1.02300
Fe133      Fe  0.28915362  0.31755294  0.60256634     1.65800
Fe134      Fe  0.35351004  0.36123235  0.62577470     1.73200
Fe135      Fe  0.31591545  0.37035118  0.54282677     1.54400
O136        O  0.29596298  0.32953777  0.51595024    -0.82300
O137        O  0.33720579  0.40578510  0.62662560    -0.80600
O138        O  0.30947517  0.29531468  0.55867726    -0.84800
O139        O  0.25003667  0.33774719  0.56961641    -0.79700
O140        O  0.36254239  0.35521366  0.53029361    -0.81400
O141        O  0.32096751  0.35285039  0.67258531    -0.84200
C142        C  0.24561877  0.36439480  0.55403539     0.96600
C143        C  0.29687903  0.30124184  0.52738607     1.04000
O144        O  0.31866510  0.35097967  0.59128734    -1.13200
O145        O  0.37178564  0.31683161  0.62265095    -0.75600
O146        O  0.32429960  0.29287389  0.63453439    -0.79100
O147        O  0.26860578  0.38465295  0.55465023    -0.79800
C148        C  0.35542570  0.29202779  0.62690888     0.95500
O149        O  0.27151048  0.34047741  0.64783570    -0.77700
O150        O  0.38808027  0.37182551  0.58217387    -0.82900
C151        C  0.34086309  0.42320683  0.59826844     0.98100
C152        C  0.38826965  0.36483378  0.54719519     1.04000
O153        O  0.33558603  0.41309596  0.56477620    -0.78600
C154        C  0.28889505  0.34976286  0.67527933     1.02300
Fe155      Fe  0.22026444  0.18796092  0.39493030     1.65800
Fe156      Fe  0.15669123  0.14358345  0.37100050     1.73200
Fe157      Fe  0.19749512  0.13155657  0.45194038     1.54400
O158        O  0.24477181  0.11984620  0.43631556    -0.82300
O159        O  0.12313801  0.13146186  0.41556006    -0.80600
O160        O  0.26083298  0.16822912  0.42588539    -0.84800
O161        O  0.19954190  0.20726849  0.44059966    -0.79700
O162        O  0.17890149  0.08935378  0.42848124    -0.81400
O163        O  0.13746565  0.18757208  0.37558618    -0.84200
C164        C  0.21429062  0.20068302  0.47049841     0.96600
C165        C  0.26668934  0.14092926  0.43889744     1.04000
O166        O  0.19198340  0.15329596  0.40508018    -1.13200
O167        O  0.18845212  0.15405729  0.32376809    -0.75600
O168        O  0.23792487  0.16748522  0.34821059    -0.79100
O169        O  0.21656604  0.17205182  0.48046423    -0.79800
C170        C  0.22028106  0.15886284  0.32055245     0.95500
O171        O  0.18433754  0.21258470  0.36446257    -0.77700
O172        O  0.17373337  0.09927788  0.36745791    -0.82900
C173        C  0.12424087  0.13515350  0.45139453     0.98100
C174        C  0.17237696  0.08053464  0.39482156     1.04000
O175        O  0.15073206  0.14312824  0.46827504    -0.78600
C176        C  0.15317438  0.21277735  0.37168469     1.02300
C177        C  0.27625374  0.24669545  0.52981076    -0.26900
C178        C  0.27808728  0.27518791  0.50966921    -0.15000
C179        C  0.25812211  0.27867380  0.47732092     0.35600
C180        C  0.23677892  0.25454000  0.46667874    -0.26400
C181        C  0.23454377  0.22625032  0.48717369    -0.15600
C182        C  0.25475003  0.22263492  0.51929226     0.36700
N183        N  0.25379838  0.19523871  0.54225799    -0.89900
H184        H  0.29107539  0.24306914  0.55495647     0.17800
H185        H  0.22202427  0.25814413  0.44147923     0.17800
N186        N  0.25857451  0.30629854  0.45473714    -0.88900
H187        H  0.26183089  0.17619073  0.52651452     0.35200
H188        H  0.22910387  0.19157888  0.55088667     0.40300
H189        H  0.28322352  0.31052358  0.44629933     0.39900
H190        H  0.24995671  0.32500937  0.47070046     0.34800
C191        C  0.44871033  0.40639622  0.48382221    -0.26900
C192        C  0.46392940  0.38139933  0.46495000    -0.15000
C193        C  0.45449102  0.35064129  0.47437002     0.35600
C194        C  0.43137249  0.34564232  0.50347432    -0.26400
C195        C  0.41756838  0.37062447  0.52340988    -0.15600
C196        C  0.42579955  0.40131405  0.51310647     0.36700
N197        N  0.40974838  0.42716423  0.53135533    -0.89900
H198        H  0.45557650  0.43003624  0.47666046     0.17800
H199        H  0.42341162  0.32216880  0.51011706     0.17800
N200        N  0.46819208  0.32463463  0.45418906    -0.88900
H201        H  0.41782904  0.44822939  0.51980164     0.35200
H202        H  0.41737892  0.42711483  0.55943658     0.40300
H203        H  0.46004376  0.32644529  0.42635102     0.39900
H204        H  0.45872864  0.30367870  0.46465684     0.34800
C205        C  0.21313005  0.40054317  0.51278500    -0.26900
C206        C  0.21594001  0.37078300  0.52947395    -0.15000
C207        C  0.19327322  0.34729085  0.51773216     0.35600
C208        C  0.17016800  0.35363345  0.48904693    -0.26400
C209        C  0.16829526  0.38303555  0.47204093    -0.15600
C210        C  0.18921657  0.40698398  0.48479411     0.36700
N211        N  0.18603069  0.43777485  0.46933690    -0.89900
H212        H  0.22980622  0.41902832  0.52142186     0.17800
H213        H  0.15266542  0.33564976  0.48076962     0.17800
N214        N  0.19255741  0.31694370  0.53440546    -0.88900
H215        H  0.20380676  0.45262418  0.48117701     0.35200
H216        H  0.16257471  0.44647683  0.47717050     0.40300
H217        H  0.18887190  0.31931267  0.56330960     0.39900
H218        H  0.21532023  0.30574126  0.52949049     0.34800
C219        C  0.14011757  0.04466928  0.35348475    -0.26900
C220        C  0.15900628  0.04891159  0.38672865    -0.15000
C221        C  0.16153313  0.02400529  0.41232985     0.35600
C222        C  0.14452643  0.99610378  0.40496822    -0.26400
C223        C  0.12450012  0.99266030  0.37273492    -0.15600
C224        C  0.12272095  0.01690735  0.34640602     0.36700
N225        N  0.10315563  0.01330452  0.31279479    -0.89900
H226        H  0.13777854  0.06350862  0.33339095     0.17800
H227        H  0.15501549  0.47521007  0.41449179     0.17800
N228        N  0.18101940  0.02692116  0.44590365    -0.88900
H229        H  0.11405781  0.99544746  0.29705229     0.35200
H230        H  0.10434191  0.03341826  0.29629224     0.40300
H231        H  0.19929122  0.00944551  0.44581800     0.39900
H232        H  0.16524733  0.02301778  0.46884031     0.34800
C233        C  0.09225166  0.27470153  0.40753120    -0.26900
C234        C  0.10598052  0.30150715  0.39155834    -0.15000
C235        C  0.13476699  0.29898320  0.36874428     0.35600
C236        C  0.14901924  0.26983830  0.36172613    -0.26400
C237        C  0.13532874  0.24276750  0.37723109    -0.15600
C238        C  0.10666531  0.24525644  0.40075019     0.36700
N239        N  0.09284632  0.21814803  0.41859647    -0.89900
H240        H  0.07037618  0.27676590  0.42533735     0.17800
H241        H  0.17126902  0.26850914  0.34439200     0.17800
N242        N  0.15034243  0.32626318  0.35357174    -0.88900
H243        H  0.07153292  0.22396145  0.43412828     0.35200
H244        H  0.11055691  0.20993985  0.43791159     0.40300
H245        H  0.15110225  0.32406860  0.32436158     0.39900
H246        H  0.17499901  0.32710036  0.36346869     0.34800
C247        C  0.37804937  0.45716067  0.63623698    -0.26900
C248        C  0.35567863  0.45442380  0.60559854    -0.15000
C249        C  0.34925385  0.48100141  0.58338732     0.35600
C250        C  0.35893733  0.01150683  0.60017452    -0.26400
C251        C  0.38827571  0.01218816  0.62243901    -0.15600
C252        C  0.39400879  0.48540348  0.64486598     0.36700
N253        N  0.41692277  0.48733969  0.67592970    -0.89900
H254        H  0.38369756  0.43690165  0.65329495     0.17800
H255        H  0.34820939  0.03298820  0.58981723     0.17800
N256        N  0.32710879  0.48014958  0.55176000    -0.88900
H257        H  0.41934104  0.46572893  0.68921657     0.35200
H258        H  0.40649606  0.50250171  0.69565664     0.40300
H259        H  0.30383886  0.47189249  0.56072488     0.39900
H260        H  0.31946903  0.97181797  0.54208343     0.34800
C261        C  0.38346136  0.20788107  0.63425684    -0.26900
C262        C  0.40477352  0.20487231  0.60281738    -0.15000
C263        C  0.40998387  0.23099621  0.57958306     0.35600
C264        C  0.39412770  0.25942608  0.58861117    -0.26400
C265        C  0.37273704  0.26208084  0.61997298    -0.15600
C266        C  0.36736928  0.23599231  0.64275558     0.36700
N267        N  0.34604663  0.23806974  0.67495934    -0.89900
H268        H  0.37868178  0.18802862  0.65227034     0.17800
H269        H  0.39796516  0.27951150  0.57066996     0.17800
N270        N  0.43130302  0.22869960  0.54723266    -0.88900
H271        H  0.36016155  0.23205241  0.69865508     0.35200
H272        H  0.32695169  0.22166695  0.67198837     0.40300
H273        H  0.45559265  0.22408969  0.55678640     0.39900
H274        H  0.43225732  0.24999447  0.53300899     0.34800
C275        C  0.48113918  0.99536645  0.52484592    -0.26900
C276        C  0.48395469  0.02553317  0.50900150    -0.15000
C277        C  0.00812396  0.03368457  0.48372072     0.35600
C278        C  0.03018378  0.00993991  0.47313836    -0.26400
C279        C  0.03310872  0.48155495  0.48842587    -0.15600
C280        C  0.50266172  0.47087149  0.51964856     0.36700
N281        N  0.49979607  0.44106598  0.53773149    -0.89900
H282        H  0.46211292  0.99077448  0.54578227     0.17800
H283        H  0.04719511  0.01470063  0.45015641     0.17800
N284        N  0.00970369  0.06327428  0.46523812    -0.88900
H285        H  0.48004570  0.44110611  0.55696511     0.35200
H286        H  0.52166768  0.43745680  0.55334336     0.40300
H287        H  0.00555752  0.05977165  0.43657022     0.39900
H288        H  0.03397197  0.07193974  0.46848757     0.34800
C289        C  0.30152236  0.10395046  0.47632909    -0.26900
C290        C  0.29628062  0.13462067  0.46345563    -0.15000
C291        C  0.31554743  0.15884027  0.47947998     0.35600
C292        C  0.33818328  0.15193076  0.50872717    -0.26400
C293        C  0.34289247  0.12136343  0.52163989    -0.15600
C294        C  0.32465186  0.09699843  0.50475082     0.36700
N295        N  0.32914537  0.06494104  0.51529663    -0.89900
H296        H  0.28717910  0.08497047  0.46451307     0.17800
H297        H  0.35332786  0.17038600  0.52055066     0.17800
N298        N  0.31179999  0.19039833  0.46665916    -0.88900
H299        H  0.30659032  0.05714644  0.52684993     0.35200
H300        H  0.34729437  0.06245017  0.53612600     0.40300
H301        H  0.32066331  0.19138551  0.43908090     0.39900
H302        H  0.32685385  0.20540848  0.48235967     0.34800
C303        C  0.03777780  0.13666972  0.49613899    -0.26900
C304        C  0.04406180  0.12110601  0.53040071    -0.15000
C305        C  0.07594731  0.10832093  0.53680850     0.35600
C306        C  0.10126305  0.11254133  0.50998770    -0.26400
C307        C  0.09515772  0.12843026  0.47593711    -0.15600
C308        C  0.06276906  0.13979884  0.46847784     0.36700
N309        N  0.05555275  0.15509875  0.43347668    -0.89900
H310        H  0.01286830  0.14554785  0.49035442     0.17800
H311        H  0.12603938  0.10335329  0.51589388     0.17800
N312        N  0.08290736  0.09152696  0.57072702    -0.88900
H313        H  0.03079357  0.16307035  0.43300968     0.35200
H314        H  0.05746688  0.13844395  0.41224129     0.40300
H315        H  0.10267540  0.10260128  0.58450757     0.39900
H316        H  0.09087247  0.06915047  0.56342352     0.34800
C317        C  0.24067994  0.15122986  0.21582565    -0.26900
C318        C  0.27561911  0.15667975  0.21543572    -0.15000
C319        C  0.29227069  0.16041416  0.25001899     0.35600
C320        C  0.27364013  0.15988093  0.28355827    -0.26400
C321        C  0.23844347  0.15590493  0.28388279    -0.15600
C322        C  0.22210424  0.15093965  0.24940071     0.36700
N323        N  0.18660397  0.14642130  0.24799980    -0.89900
H324        H  0.22729868  0.14799481  0.18964082     0.17800
H325        H  0.28695412  0.16332197  0.30971565     0.17800
N326        N  0.32769719  0.16624942  0.25110614    -0.88900
H327        H  0.18200454  0.12500047  0.23518423     0.35200
H328        H  0.17625090  0.16386784  0.23103432     0.40300
H329        H  0.33979897  0.14584210  0.24270769     0.39900
H330        H  0.33565060  0.17053155  0.27859380     0.34800
C331        C  0.22022245  0.35681933  0.75047418    -0.26900
C332        C  0.23932570  0.36001454  0.78316575    -0.15000
C333        C  0.27451847  0.36410474  0.77961494     0.35600
C334        C  0.28982292  0.36155856  0.74412585    -0.26400
C335        C  0.27100563  0.35565882  0.71163972    -0.15600
C336        C  0.23532846  0.35462238  0.71509494     0.36700
N337        N  0.21335470  0.35089591  0.68358606    -0.89900
H338        H  0.19326315  0.35442918  0.75243859     0.17800
H339        H  0.31680445  0.36349966  0.74208825     0.17800
N340        N  0.29481604  0.37038793  0.81210848    -0.88900
H341        H  0.21717244  0.32900988  0.67162812     0.35200
H342        H  0.21810773  0.36848412  0.66398456     0.40300
H343        H  0.28753154  0.39208721  0.82254546     0.39900
H344        H  0.32008229  0.37231561  0.80479326     0.33200
C345        C  0.24333109  0.23207888  0.00529073    -0.26900
C346        C  0.27815394  0.23458348  0.00911055    -0.15000
C347        C  0.29322422  0.26418091  0.00668514     0.35600
C348        C  0.27349994  0.29058775  0.99961340    -0.26400
C349        C  0.23876671  0.28799227  0.99510200    -0.15600
C350        C  0.22346390  0.25856295  0.99870613     0.36700
N351        N  0.18775161  0.25581252  0.99477265    -0.89900
H352        H  0.23143918  0.20967718  0.00934573     0.17800
H353        H  0.28562867  0.31286413  0.99540452     0.17800
N354        N  0.32868242  0.26737649  0.01160731    -0.88900
H355        H  0.17674589  0.26877820  0.01629632     0.35200
H356        H  0.18030599  0.23277870  0.99895761     0.40300
H357        H  0.33284778  0.28249898  0.03406593     0.39900
H358        H  0.33847205  0.27769928  0.98738005     0.34800
C359        C  0.47138097  0.40198539  0.24614729    -0.26900
C360        C  0.49046835  0.40534654  0.21348247    -0.15000
C361        C  0.02481182  0.40131790  0.21451564     0.35600
C362        C  0.04029744  0.40074456  0.24999567    -0.26400
C363        C  0.02139828  0.40100908  0.28315557    -0.15600
C364        C  0.48638331  0.40074060  0.28169540     0.36700
N365        N  0.46439029  0.39767048  0.31325475    -0.89900
H366        H  0.44428889  0.40153093  0.24433383     0.17800
H367        H  0.06740693  0.40110862  0.25141665     0.17800
N368        N  0.04547514  0.40061583  0.18165093    -0.88900
H369        H  0.46491561  0.41807098  0.32911422     0.35200
H370        H  0.47208153  0.37868809  0.32955012     0.40300
H371        H  0.05999094  0.38033132  0.18255314     0.39900
H372        H  0.06165934  0.41967418  0.18256954     0.34800
C373        C  0.10264024  0.39520777  0.00935572    -0.26900
C374        C  0.09762111  0.37657729  0.97733039    -0.15000
C375        C  0.06620803  0.36276027  0.97150749     0.35600
C376        C  0.04065778  0.36748285  0.99816524    -0.26400
C377        C  0.04555674  0.38644535  0.03007258    -0.15600
C378        C  0.07690035  0.40052782  0.03537741     0.36700
N379        N  0.08279602  0.42010490  0.06715771    -0.89900
H380        H  0.12680967  0.40595016  0.01411122     0.17800
H381        H  0.01639077  0.35701714  0.99329517     0.17800
N382        N  0.06065610  0.34329966  0.93936094    -0.88900
H383        H  0.08988634  0.44204215  0.05726135     0.35200
H384        H  0.10286828  0.41078653  0.08239651     0.40300
H385        H  0.06165834  0.35747926  0.91549851     0.39900
H386        H  0.03654212  0.33389841  0.94004841     0.34800
C387        C  0.35332304  0.37388344  0.98883602    -0.26900
C388        C  0.34685111  0.39235027  0.02061094    -0.15000
C389        C  0.31535409  0.40648185  0.02472855     0.35600
C390        C  0.29101790  0.40213511  0.99658804    -0.26400
C391        C  0.29739308  0.38343147  0.96478990    -0.15600
C392        C  0.32895372  0.36914844  0.96100639     0.36700
N393        N  0.33620937  0.35005504  0.92894045    -0.89900
H394        H  0.37780231  0.36324099  0.98562120     0.17800
H395        H  0.26654756  0.41267175  0.00014732     0.17800
N396        N  0.30857062  0.42585470  0.05666273    -0.88900
H397        H  0.36054287  0.34108812  0.93059561     0.35200
H398        H  0.33541718  0.36436779  0.90516633     0.40300
H399        H  0.30892615  0.41162820  0.08051433     0.39900
H400        H  0.28443455  0.43525529  0.05489192     0.34800
C401        C  0.38181731  0.05357467  0.13723034    -0.26900
C402        C  0.35909662  0.05762371  0.10715621    -0.15000
C403        C  0.35183446  0.03202656  0.08393419     0.35600
C404        C  0.36773631  0.00327749  0.09100324    -0.26400
C405        C  0.39096977  0.99962497  0.12057317    -0.15600
C406        C  0.39785200  0.02501520  0.14388592     0.36700
N407        N  0.42072942  0.02180624  0.17466012    -0.89900
H408        H  0.38791468  0.07296468  0.15535328     0.17800
H409        H  0.36071154  0.48278250  0.07820362     0.17800
N410        N  0.32841568  0.03520141  0.05347522    -0.88900
H411        H  0.40791329  0.02732430  0.19936105     0.35200
H412        H  0.43988541  0.03806744  0.17107459     0.40300
H413        H  0.30492681  0.03998078  0.06510423     0.39900
H414        H  0.32609173  0.01419429  0.03898239     0.34800
C415        C  0.37087220  0.30901585  0.11961651    -0.26900
C416        C  0.40333101  0.30916107  0.10436585    -0.15000
C417        C  0.42020028  0.28082306  0.09909583     0.35600
C418        C  0.40439230  0.25295802  0.10912227    -0.26400
C419        C  0.37146155  0.25250532  0.12377059    -0.15600
C420        C  0.35467419  0.28109579  0.12891572     0.36700
N421        N  0.32120758  0.28206300  0.14330506    -0.89900
H422        H  0.35786768  0.33086290  0.12417384     0.17800
H423        H  0.41792066  0.23143499  0.10463993     0.17800
N424        N  0.45348301  0.27973396  0.08421921    -0.88900
H425        H  0.30600683  0.29317827  0.12341434     0.35200
H426        H  0.32124515  0.29557238  0.16766873     0.40300
H427        H  0.46905706  0.29287969  0.10162639     0.39900
H428        H  0.45320255  0.29005641  0.05761331     0.34800
C429        C  0.47163377  0.10947151  0.74383498    -0.26900
C430        C  0.49010944  0.10776837  0.71056824    -0.15000
C431        C  0.02785770  0.10307424  0.71638081     0.35600
C432        C  0.04423978  0.10569142  0.75123012    -0.26400
C433        C  0.02630643  0.11130794  0.78421264    -0.15600
C434        C  0.48749973  0.11147465  0.77898561     0.36700
N435        N  0.46695556  0.11281866  0.81191310    -0.89900
H436        H  0.44454419  0.10819229  0.74284871     0.17800
H437        H  0.07105974  0.10187596  0.75258901     0.17800
N438        N  0.04771519  0.09669861  0.68379130    -0.88900
H439        H  0.45190705  0.09294271  0.81256877     0.35200
H440        H  0.45129303  0.13226611  0.80969373     0.40300
H441        H  0.06068807  0.07584435  0.68829786     0.39900
H442        H  0.06529778  0.11451190  0.68081313     0.34800
C443        C  0.03708467  0.00179532  0.97732889    -0.26900
C444        C  0.02790797  0.03243012  0.98742594    -0.15000
C445        C  0.49857786  0.04143982  0.00966121     0.35600
C446        C  0.47811921  0.01587241  0.01801019    -0.26400
C447        C  0.48732212  0.48539321  0.00972633    -0.15600
C448        C  0.01237161  0.47810209  0.98485182     0.36700
N449        N  0.02016953  0.44745457  0.97178805    -0.89900
H450        H  0.06023952  0.99762295  0.96225027     0.17800
H451        H  0.45519192  0.02002293  0.03352292     0.17800
N452        N  0.48818970  0.07205558  0.02032409    -0.88900
H453        H  0.04393649  0.44149223  0.98182656     0.35200
H454        H  0.02141828  0.44818637  0.94247371     0.40300
H455        H  0.48566346  0.07244006  0.04953695     0.39900
H456        H  0.46452862  0.07606916  0.00873263     0.34800
C457        C  0.16136357  0.24276050  0.89991209    -0.26900
C458        C  0.14665991  0.26464351  0.87564754    -0.15000
C459        C  0.11429468  0.25899405  0.86140923     0.35600
C460        C  0.09709057  0.23184637  0.87185001    -0.26400
C461        C  0.11121276  0.21058513  0.89733011    -0.15600
C462        C  0.14388408  0.21593639  0.91115968     0.36700
N463        N  0.15970479  0.19349988  0.93537511    -0.89900
H464        H  0.18609236  0.24716364  0.91125831     0.17800
H465        H  0.07267277  0.22722524  0.85979081     0.17800
N466        N  0.09904584  0.28060432  0.83588457    -0.88900
H467        H  0.14675284  0.19360722  0.96084899     0.35200
H468        H  0.18435971  0.19997654  0.94138424     0.40300
H469        H  0.07643691  0.28807049  0.84761603     0.39900
H470        H  0.09358535  0.26879401  0.81099339     0.34800
C471        C  0.16319325  0.48530084  0.90924653    -0.26900
C472        C  0.15314825  0.45924583  0.88878937    -0.15000
C473        C  0.12680110  0.46230726  0.86216799     0.35600
C474        C  0.11183201  0.49151589  0.85600985    -0.26400
C475        C  0.12429841  0.01894286  0.87611793    -0.15600
C476        C  0.14832701  0.01473188  0.90513736     0.36700
N477        N  0.15716095  0.04017207  0.92933600    -0.89900
H478        H  0.18280785  0.48284653  0.93011299     0.17800
H479        H  0.09168727  0.49380560  0.83576210     0.17800
N480        N  0.11457038  0.43555501  0.84225490    -0.88900
H481        H  0.17545796  0.03333663  0.94874920     0.35200
H482        H  0.13588721  0.04605294  0.94487518     0.40300
H483        H  0.10367762  0.42062909  0.86196890     0.39900
H484        H  0.09554123  0.44186497  0.82350535     0.34800
C485        C  0.22606968  0.12522121  0.99846744    -0.26900
C486        C  0.21858880  0.13809901  0.03387758    -0.15000
C487        C  0.18531997  0.14567872  0.04263624     0.35600
C488        C  0.16011459  0.13978877  0.01600294    -0.26400
C489        C  0.16756130  0.12698758  0.98046466    -0.15600
C490        C  0.20098218  0.12001740  0.97145517     0.36700
N491        N  0.20924688  0.10691126  0.93556126    -0.89900
H492        H  0.25186655  0.11991488  0.99146269     0.17800
H493        H  0.13439194  0.14546965  0.02292699     0.17800
N494        N  0.17724885  0.15893999  0.07851674    -0.88900
H495        H  0.23480175  0.10166893  0.93421851     0.35200
H496        H  0.20489369  0.12405248  0.91524593     0.40300
H497        H  0.18305179  0.14236537  0.09909025     0.39900
H498        H  0.15151894  0.16319969  0.08050546     0.34800
C499        C  0.47308248  0.15420163  0.99641944    -0.26900
C500        C  0.46757165  0.13500013  0.96483502    -0.15000
C501        C  0.43630581  0.12031242  0.96079580     0.35600
C502        C  0.41169382  0.12461707  0.98853216    -0.26400
C503        C  0.41752493  0.14320663  0.02040095    -0.15600
C504        C  0.44853201  0.15831905  0.02410716     0.36700
N505        N  0.45541692  0.17853323  0.05503128    -0.89900
H506        H  0.49708032  0.16546398  0.00031422     0.17800
H507        H  0.38760354  0.11336218  0.98526588     0.17800
N508        N  0.42974009  0.10089990  0.92884499    -0.88900
H509        H  0.45317439  0.16574495  0.07989467     0.35200
H510        H  0.43736643  0.19619125  0.05512389     0.40300
H511        H  0.43034774  0.11506938  0.90494652     0.39900
H512        H  0.40561609  0.09157541  0.93031525     0.34800
Fe513      Fe  0.03917810  0.57504085  0.89577198     1.65800
Fe514      Fe  0.10478698  0.61742566  0.87225541     1.73200
Fe515      Fe  0.06786625  0.62669061  0.95573099     1.54400
O516        O  0.02142698  0.64305695  0.94406328    -0.82300
O517        O  0.13982554  0.62609811  0.91610712    -0.80600
O518        O  0.49834988  0.59802443  0.92606390    -0.84800
O519        O  0.05881560  0.55254190  0.94001225    -0.79700
O520        O  0.08927753  0.66847077  0.93478880    -0.81400
O521        O  0.12157465  0.57255580  0.87392361    -0.84200
C522        C  0.04649618  0.55881380  0.97123765     0.96600
C523        C  0.49438849  0.62499087  0.94073417     1.04000
O524        O  0.06972279  0.60773205  0.90683802    -1.13200
O525        O  0.07191790  0.61012942  0.82540945    -0.75600
O526        O  0.02221646  0.59756569  0.84974693    -0.79100
O527        O  0.04601309  0.58700555  0.98250309    -0.79800
C528        C  0.03999507  0.60617856  0.82224010     0.95500
O529        O  0.07340131  0.54887074  0.86450046    -0.77700
O530        O  0.09038644  0.66292492  0.87248999    -0.82900
C531        C  0.13954065  0.61992989  0.95138279     0.98100
C532        C  0.09417714  0.67931409  0.90167986     1.04000
O533        O  0.11379315  0.60984861  0.96787303    -0.78600
C534        C  0.10482070  0.54788489  0.87052844     1.02300
Fe535      Fe  0.47447542  0.94181692  0.10180216     1.65800
Fe536      Fe  0.40762343  0.90018224  0.12137464     1.73200
Fe537      Fe  0.44759058  0.89033332  0.04011358     1.54400
O538        O  0.46979771  0.93093571  0.01466360    -0.82300
O539        O  0.42246876  0.85530975  0.12206795    -0.80600
O540        O  0.45708729  0.96566388  0.05747990    -0.84800
O541        O  0.01438812  0.91867721  0.07184729    -0.79700
O542        O  0.40206926  0.90605964  0.02431315    -0.81400
O543        O  0.43909797  0.90654137  0.16991852    -0.84200
C544        C  0.01794715  0.89157578  0.05739351     0.96600
C545        C  0.46911851  0.95925522  0.02605058     1.04000
O546        O  0.44354831  0.90994766  0.08834106    -1.13200
O547        O  0.39120087  0.94501658  0.11914732    -0.75600
O548        O  0.43928531  0.96760037  0.13262884    -0.79100
O549        O  0.49319758  0.87440883  0.05546467    -0.79800
C550        C  0.40809056  0.96924113  0.12511865     0.95500
O551        O  0.48983287  0.91755892  0.14741400    -0.77700
O552        O  0.37394002  0.89178322  0.07570182    -0.82900
C553        C  0.41921732  0.83818898  0.09356948     0.98100
C554        C  0.37538702  0.89760391  0.04029497     1.04000
O555        O  0.42573025  0.84819345  0.06037143    -0.78600
C556        C  0.47119538  0.90853208  0.17398349     1.02300
Fe557      Fe  0.22476268  0.82470012  0.89209373     1.65800
Fe558      Fe  0.15715871  0.86566962  0.87061858     1.73200
Fe559      Fe  0.19844020  0.87856021  0.95083920     1.54400
O560        O  0.22106786  0.83922946  0.97836765    -0.82300
O561        O  0.17138362  0.91070752  0.86775650    -0.80600
O562        O  0.20904090  0.80206645  0.93806545    -0.84800
O563        O  0.26421501  0.84709221  0.92185049    -0.79700
O564        O  0.15325218  0.86341524  0.96803956    -0.81400
O565        O  0.18807968  0.85776750  0.82210382    -0.84200
C566        C  0.26780715  0.87447523  0.93547208     0.96600
C567        C  0.22016910  0.81040227  0.96928982     1.04000
O568        O  0.19357050  0.85691850  0.90396720    -1.13200
O569        O  0.14104090  0.82086863  0.87400011    -0.75600
O570        O  0.18954863  0.79766134  0.86340689    -0.79100
O571        O  0.24403816  0.89389819  0.93425019    -0.79800
C572        C  0.15812712  0.79643174  0.86959175     0.95500
O573        O  0.23891506  0.84718990  0.84494968    -0.77700
O574        O  0.12385031  0.87508312  0.91645698    -0.82900
C575        C  0.16878721  0.92877743  0.89545452     0.98100
C576        C  0.12599058  0.87060080  0.95215486     1.04000
O577        O  0.17613090  0.91983240  0.92886854    -0.78600
C578        C  0.22007793  0.85501945  0.81793679     1.02300
Fe579      Fe  0.28776090  0.69455481  0.10178938     1.65800
Fe580      Fe  0.35345783  0.65173103  0.12577302     1.73200
Fe581      Fe  0.31348225  0.63904290  0.04499932     1.54400
O582        O  0.26708986  0.62583733  0.06109060    -0.82300
O583        O  0.38752191  0.64087234  0.08129788    -0.80600
O584        O  0.24836921  0.67363251  0.07070033    -0.84800
O585        O  0.30603259  0.71624614  0.05600640    -0.79700
O586        O  0.33390256  0.59738772  0.06818736    -0.81400
O587        O  0.37064344  0.69613841  0.12100310    -0.84200
C588        C  0.29501569  0.70777159  0.02472872     0.96600
C589        C  0.24441156  0.64616239  0.05762444     1.04000
O590        O  0.31799655  0.66101271  0.09146606    -1.13200
O591        O  0.32123990  0.66088691  0.17298039    -0.75600
O592        O  0.27132392  0.67260744  0.14833914    -0.79100
O593        O  0.29322610  0.67884391  0.01625115    -0.79800
C594        C  0.28919231  0.66435345  0.17605301     0.95500
O595        O  0.32290267  0.72020850  0.13208026    -0.77700
O596        O  0.33865867  0.60678368  0.12931234    -0.82900
C597        C  0.38618672  0.64483138  0.04550063     0.98100
C598        C  0.34106049  0.58852634  0.10168684     1.04000
O599        O  0.35947022  0.65234835  0.02872092    -0.78600
C600        C  0.35408635  0.72092868  0.12486172     1.02300
Fe601      Fe  0.47039176  0.56787267  0.60369397     1.65800
Fe602      Fe  0.40524576  0.61131341  0.62597140     1.73200
Fe603      Fe  0.44263405  0.62000930  0.54289575     1.54400
O604        O  0.99481046  0.63902080  0.56068468    -0.82300
O605        O  0.37024155  0.62128820  0.58179323    -0.80600
O606        O  0.01419053  0.59164641  0.57245205    -0.84800
O607        O  0.45042890  0.54504144  0.56013167    -0.79700
O608        O  0.42267994  0.66296125  0.56419451    -0.81400
O609        O  0.38775091  0.56666357  0.62394933    -0.84200
C610        C  0.46312927  0.55086810  0.52893872     0.96600
C611        C  0.01793157  0.61898615  0.55861541     1.04000
O612        O  0.44019069  0.60093197  0.59169205    -1.13200
O613        O  0.43812141  0.60383051  0.67326466    -0.75600
O614        O  0.48773902  0.59123567  0.64881892    -0.79100
O615        O  0.46336040  0.57902193  0.51688141    -0.79800
C616        C  0.47024934  0.60070550  0.67614249     0.95500
O617        O  0.43563789  0.54303655  0.63597133    -0.77700
O618        O  0.42094830  0.65593754  0.62612227    -0.82900
C619        C  0.37007743  0.61455423  0.54664842     0.98100
C620        C  0.41762028  0.67329174  0.59763754     1.04000
O621        O  0.39594620  0.60485932  0.52995960    -0.78600
C622        C  0.40439472  0.54197202  0.62884173     1.02300
Fe623      Fe  0.03811103  0.94047551  0.39593174     1.65800
Fe624      Fe  0.10020204  0.89474793  0.37027415     1.73200
Fe625      Fe  0.06410299  0.88538312  0.45373311     1.54400
O626        O  0.04542595  0.92592763  0.48180835    -0.82300
O627        O  0.08171302  0.85093598  0.36975196    -0.80600
O628        O  0.05992569  0.96086001  0.44030950    -0.84800
O629        O  0.49972737  0.91581923  0.42505474    -0.79700
O630        O  0.11127511  0.89842681  0.46674401    -0.81400
O631        O  0.06707300  0.90482852  0.32433119    -0.84200
C632        C  0.49516440  0.88857474  0.43900185     0.96600
C633        C  0.04758134  0.95443967  0.47156516     1.04000
O634        O  0.06691185  0.90601853  0.40586651    -1.13200
O635        O  0.12020953  0.93827151  0.37240089    -0.75600
O636        O  0.07337436  0.96489646  0.36390432    -0.79100
O637        O  0.01671702  0.87253129  0.44081931    -0.79800
C638        C  0.10498182  0.96381682  0.36856677     0.95500
O639        O  0.01873398  0.91951438  0.35000386    -0.77700
O640        O  0.13549749  0.88316825  0.41329026    -0.82900
C641        C  0.08709543  0.83330341  0.39750429     0.98100
C642        C  0.13651410  0.88900447  0.44864474     1.04000
O643        O  0.08277088  0.84286321  0.43124747    -0.78600
C644        C  0.03530291  0.91017809  0.32194962     1.02300
Fe645      Fe  0.28955369  0.81845405  0.60006381     1.65800
Fe646      Fe  0.35347250  0.86228089  0.62414533     1.73200
Fe647      Fe  0.31666431  0.87149110  0.54058523     1.54400
O648        O  0.29701959  0.83056461  0.51366074    -0.82300
O649        O  0.33764674  0.90701460  0.62467385    -0.80600
O650        O  0.31094065  0.79666696  0.55648512    -0.84800
O651        O  0.25083719  0.83857294  0.56657158    -0.79700
O652        O  0.36357147  0.85664847  0.52839842    -0.81400
O653        O  0.31991678  0.85396951  0.67050616    -0.84200
C654        C  0.24625138  0.86519555  0.55100467     0.96600
C655        C  0.29787010  0.80235786  0.52540828     1.04000
O656        O  0.31896475  0.85214400  0.58923643    -1.13200
O657        O  0.37166252  0.81776398  0.62159757    -0.75600
O658        O  0.32407919  0.79379160  0.63287695    -0.79100
O659        O  0.26909194  0.88561109  0.55166803    -0.79800
C660        C  0.35535325  0.79297447  0.62620281     0.95500
O661        O  0.27088951  0.84093120  0.64508108    -0.77700
O662        O  0.38875653  0.87269722  0.58079101    -0.82900
C663        C  0.34129447  0.92432182  0.59621134     0.98100
C664        C  0.38922980  0.86603702  0.54565499     1.04000
O665        O  0.33598499  0.91432613  0.56267541    -0.78600
C666        C  0.28783847  0.85016399  0.67287590     1.02300
Fe667      Fe  0.22034699  0.68886607  0.39319650     1.65800
Fe668      Fe  0.15501793  0.64605197  0.37084671     1.73200
Fe669      Fe  0.19756463  0.63257598  0.45041510     1.54400
O670        O  0.24443471  0.62006699  0.43402237    -0.82300
O671        O  0.12223118  0.63459887  0.41602211    -0.80600
O672        O  0.26111180  0.66823949  0.42351989    -0.84800
O673        O  0.20057178  0.70809484  0.43938114    -0.79700
O674        O  0.17756238  0.59072095  0.42689776    -0.81400
O675        O  0.13731715  0.69027797  0.37683297    -0.84200
C676        C  0.21536262  0.70141226  0.46918732     0.96600
C677        C  0.26658194  0.64092646  0.43686401     1.04000
O678        O  0.19164639  0.65451328  0.40371795    -1.13200
O679        O  0.18588472  0.65632020  0.32295225    -0.75600
O680        O  0.23663566  0.66843334  0.34555531    -0.79100
O681        O  0.21777123  0.67272673  0.47891974    -0.79800
C682        C  0.21770176  0.66052943  0.31860578     0.95500
O683        O  0.18423585  0.71481914  0.36401861    -0.77700
O684        O  0.16999138  0.60117720  0.36614493    -0.82900
C685        C  0.12440447  0.63837494  0.45171357     0.98100
C686        C  0.16943352  0.58230308  0.39345500     1.04000
O687        O  0.15155832  0.64525172  0.46784952    -0.78600
C688        C  0.15322075  0.71522393  0.37211221     1.02300
C689        C  0.27595164  0.74823517  0.52937170    -0.26900
C690        C  0.27824355  0.77642100  0.50862412    -0.15000
C691        C  0.25826705  0.77975971  0.47629014     0.35600
C692        C  0.23726293  0.75543636  0.46555223    -0.26400
C693        C  0.23507833  0.72719876  0.48616554    -0.15600
C694        C  0.25454625  0.72405427  0.51888927     0.36700
N695        N  0.25287323  0.69705828  0.54247608    -0.89900
H696        H  0.29041827  0.74491871  0.55483335     0.17800
H697        H  0.22276350  0.75885531  0.44013219     0.17800
N698        N  0.25848904  0.80737107  0.45368443    -0.88900
H699        H  0.26113973  0.67772092  0.52742285     0.35200
H700        H  0.22793344  0.69366017  0.55038715     0.40300
H701        H  0.28307688  0.81174882  0.44513891     0.39900
H702        H  0.24974234  0.82600410  0.46971350     0.34800
C703        C  0.44886274  0.90718530  0.48049079    -0.26900
C704        C  0.46561180  0.88210641  0.46338298    -0.15000
C705        C  0.45753158  0.85140073  0.47490558     0.35600
C706        C  0.43430116  0.84671559  0.50410465    -0.26400
C707        C  0.41881019  0.87189028  0.52203543    -0.15600
C708        C  0.42554762  0.90227590  0.50944722     0.36700
N709        N  0.40754584  0.92809665  0.52496596    -0.89900
H710        H  0.45439992  0.93084667  0.47203824     0.17800
H711        H  0.42746589  0.82325609  0.51224179     0.17800
N712        N  0.47265570  0.82504892  0.45673176    -0.88900
H713        H  0.39472727  0.93928821  0.50314614     0.35200
H714        H  0.42478163  0.94380304  0.53608789     0.40300
H715        H  0.46463592  0.82513198  0.42876936     0.39900
H716        H  0.46416927  0.80424792  0.46861932     0.34800
C717        C  0.21556108  0.89909650  0.50530412    -0.26900
C718        C  0.21639881  0.87125856  0.52658137    -0.15000
C719        C  0.19092726  0.84886516  0.52007511     0.35600
C720        C  0.16634445  0.85459246  0.49279290    -0.26400
C721        C  0.16635346  0.88196978  0.47130746    -0.15600
C722        C  0.19076467  0.90458253  0.47807562     0.36700
N723        N  0.19002274  0.93341940  0.45786291    -0.89900
H724        H  0.23447771  0.91679023  0.50937731     0.17800
H725        H  0.14657512  0.83766730  0.48875867     0.17800
N726        N  0.18892401  0.82023606  0.54061124    -0.88900
H727        H  0.21285495  0.93589396  0.44385839     0.35200
H728        H  0.18799349  0.95147896  0.47734953     0.40300
H729        H  0.18812872  0.82522003  0.56931742     0.39900
H730        H  0.20995689  0.80664633  0.53461295     0.34800
C731        C  0.13059967  0.54831282  0.35740787    -0.26900
C732        C  0.15535195  0.55088631  0.38561985    -0.15000
C733        C  0.16438351  0.52410940  0.40614585     0.35600
C734        C  0.14829979  0.49564920  0.39831448    -0.26400
C735        C  0.12289758  0.49341060  0.37085080    -0.15600
C736        C  0.11420294  0.52007895  0.35020146     0.36700
N737        N  0.08893697  0.51859817  0.32169388    -0.89900
H738        H  0.12308410  0.56865097  0.34140616     0.17800
H739        H  0.14598407  0.97735185  0.42530132     0.17800
N740        N  0.18968826  0.52586000  0.43477610    -0.88900
H741        H  0.09968049  0.52556126  0.29627409     0.35200
H742        H  0.07011272  0.53457080  0.32846926     0.40300
H743        H  0.21229324  0.53148860  0.42164026     0.39900
H744        H  0.19319418  0.50415287  0.44747478     0.34800
C745        C  0.09715819  0.77758116  0.41440772    -0.26900
C746        C  0.10261883  0.80255747  0.38989917    -0.15000
C747        C  0.12509431  0.79868970  0.35929152     0.35600
C748        C  0.14105313  0.76992065  0.35374996    -0.26400
C749        C  0.13530392  0.74495558  0.37799118    -0.15600
C750        C  0.11327374  0.74880928  0.40883205     0.36700
N751        N  0.10808186  0.72375136  0.43500847    -0.89900
H752        H  0.08054206  0.78061791  0.43815816     0.17800
H753        H  0.15827894  0.76700383  0.33052431     0.17800
N754        N  0.13259586  0.82425824  0.33455751    -0.88900
H755        H  0.09102590  0.73025931  0.45583378     0.35200
H756        H  0.13085146  0.71944543  0.44861622     0.40300
H757        H  0.14886011  0.81728262  0.31317463     0.39900
H758        H  0.14545144  0.84095213  0.35023008     0.34800
C759        C  0.38535132  0.95577678  0.62665732    -0.26900
C760        C  0.35677838  0.95508863  0.60340154    -0.15000
C761        C  0.34356596  0.98338853  0.58996754     0.35600
C762        C  0.36463364  0.50930937  0.59253932    -0.26400
C763        C  0.38719921  0.51182268  0.62283940    -0.15600
C764        C  0.40131404  0.98381873  0.63589584     0.36700
N765        N  0.43053351  0.98327690  0.65925006    -0.89900
H766        H  0.39572158  0.93418500  0.63743570     0.17800
H767        H  0.35975276  0.52940471  0.57501604     0.17800
N768        N  0.31439274  0.98431359  0.56656913    -0.88900
H769        H  0.44866903  0.96954006  0.64607967     0.35200
H770        H  0.42422020  0.97258149  0.68467226     0.40300
H771        H  0.29482196  0.97329503  0.58078097     0.39900
H772        H  0.33691158  0.46478061  0.53190339     0.34800
C773        C  0.38344744  0.70909380  0.63682527    -0.26900
C774        C  0.40389884  0.70500807  0.60482679    -0.15000
C775        C  0.40926704  0.73060264  0.58078231     0.35600
C776        C  0.39386951  0.75938655  0.58908660    -0.26400
C777        C  0.37285951  0.76295572  0.62059706    -0.15600
C778        C  0.36783332  0.73758710  0.64464004     0.36700
N779        N  0.34721607  0.74075983  0.67729199    -0.89900
H780        H  0.37875646  0.68976204  0.65567281     0.17800
H781        H  0.39761171  0.77898419  0.57035164     0.17800
N782        N  0.43020591  0.72738316  0.54823913    -0.88900
H783        H  0.36178761  0.73532015  0.70084635     0.35200
H784        H  0.32793455  0.72442664  0.67553371     0.40300
H785        H  0.45452364  0.72264203  0.55762113     0.39900
H786        H  0.43134057  0.74837175  0.53338874     0.34800
C787        C  0.48033725  0.49510930  0.52854317    -0.26900
C788        C  0.48309443  0.52513899  0.51226034    -0.15000
C789        C  0.01434208  0.53611324  0.48308624     0.35600
C790        C  0.03548080  0.51163155  0.47218870    -0.26400
C791        C  0.02976203  0.98029932  0.49056657    -0.15600
C792        C  0.50343902  0.97121825  0.51560151     0.36700
N793        N  0.50099651  0.94142130  0.53380809    -0.89900
H794        H  0.46103989  0.49056659  0.54919067     0.17800
H795        H  0.05317512  0.51607842  0.44976204     0.17800
N796        N  0.01782701  0.56611629  0.46596804    -0.88900
H797        H  0.48177986  0.94148669  0.55370039     0.35200
H798        H  0.52318965  0.93787835  0.54884175     0.40300
H799        H  0.01446890  0.56360027  0.43701890     0.39900
H800        H  0.04232188  0.57377182  0.47057409     0.34800
C801        C  0.30068534  0.60382960  0.47543644    -0.26900
C802        C  0.29566106  0.63452860  0.46242776    -0.15000
C803        C  0.31440520  0.65873127  0.47938008     0.35600
C804        C  0.33638078  0.65177572  0.50936620    -0.26400
C805        C  0.34086763  0.62118561  0.52232258    -0.15600
C806        C  0.32312211  0.59699944  0.50461519     0.36700
N807        N  0.32713682  0.56525182  0.51606080    -0.89900
H808        H  0.28662875  0.58482743  0.46325254     0.17800
H809        H  0.35118443  0.67020992  0.52174905     0.17800
N810        N  0.31079873  0.69033875  0.46671989    -0.88900
H811        H  0.32109770  0.56373241  0.54454898     0.35200
H812        H  0.35222942  0.55888392  0.51264033     0.40300
H813        H  0.32037306  0.69153813  0.43946204     0.39900
H814        H  0.32535272  0.70532270  0.48304567     0.34800
C815        C  0.04043686  0.64426971  0.50100565    -0.26900
C816        C  0.04629348  0.62553182  0.53302823    -0.15000
C817        C  0.07731645  0.61043146  0.53689153     0.35600
C818        C  0.10180891  0.61429860  0.50916623    -0.26400
C819        C  0.09586029  0.63266472  0.47703251    -0.15600
C820        C  0.06481074  0.64771528  0.47275854     0.36700
N821        N  0.05852344  0.66709176  0.44056005    -0.89900
H822        H  0.01631348  0.65548532  0.49733318     0.17800
H823        H  0.12586062  0.60291039  0.51286550     0.17800
N824        N  0.08422546  0.59146933  0.56911669    -0.88900
H825        H  0.03481575  0.67736811  0.44237330     0.35200
H826        H  0.05804975  0.65270639  0.41695685     0.40300
H827        H  0.10530932  0.60050321  0.58265439     0.39900
H828        H  0.09014056  0.56908226  0.55979147     0.34800
C829        C  0.23646626  0.66794268  0.21410419    -0.26900
C830        C  0.27097922  0.66021570  0.21263762    -0.15000
C831        C  0.28663210  0.64970117  0.24589819     0.35600
C832        C  0.26815039  0.64881545  0.27963674    -0.26400
C833        C  0.23412465  0.65775385  0.28117169    -0.15600
C834        C  0.21806999  0.66706211  0.24779098     0.36700
N835        N  0.18360311  0.67688005  0.24833149    -0.89900
H836        H  0.22369018  0.67577851  0.18895394     0.17800
H837        H  0.28061279  0.64141772  0.30520140     0.17800
N838        N  0.32119876  0.64029530  0.24563767    -0.88900
H839        H  0.17539588  0.68262558  0.22129853     0.35200
H840        H  0.18222150  0.69732274  0.26412584     0.40300
H841        H  0.32296367  0.62019104  0.22927968     0.39900
H842        H  0.32908980  0.63404522  0.27262772     0.34800
C843        C  0.21805584  0.85560410  0.74748065    -0.26900
C844        C  0.23671562  0.85887219  0.78049589    -0.15000
C845        C  0.27204574  0.86257863  0.77743449     0.35600
C846        C  0.28775874  0.86044510  0.74211702    -0.26400
C847        C  0.26938228  0.85511578  0.70921466    -0.15600
C848        C  0.23364346  0.85361668  0.71224576     0.36700
N849        N  0.21208533  0.84967870  0.68041633    -0.89900
H850        H  0.19108540  0.85312728  0.74907776     0.17800
H851        H  0.31476544  0.86235720  0.74051429     0.17800
N852        N  0.29212931  0.86812467  0.81029601    -0.88900
H853        H  0.21655222  0.82794633  0.66830945     0.35200
H854        H  0.21667710  0.86746029  0.66103452     0.40300
H855        H  0.28514963  0.88979851  0.82103856     0.39900
H856        H  0.31751518  0.86970932  0.80337785     0.33200
C857        C  0.24228198  0.73023545  0.00238537    -0.26900
C858        C  0.27730560  0.73217508  0.00370510    -0.15000
C859        C  0.29277002  0.76124239  0.99805129     0.35600
C860        C  0.27312971  0.78775573  0.99106712    -0.26400
C861        C  0.23807529  0.78586692  0.98989682    -0.15600
C862        C  0.22247613  0.75678685  0.99586083     0.36700
N863        N  0.18652048  0.75455863  0.99645567    -0.89900
H864        H  0.23023828  0.70827899  0.00864189     0.17800
H865        H  0.28540475  0.80962562  0.98490403     0.17800
N866        N  0.32851830  0.76383045  0.99972117    -0.88900
H867        H  0.17908677  0.73202573  0.00371734     0.35200
H868        H  0.17757548  0.75849239  0.96930661     0.40300
H869        H  0.33455853  0.77984889  0.02067401     0.39900
H870        H  0.33683114  0.77282180  0.97405760     0.34800
C871        C  0.46950221  0.90383911  0.24419120    -0.26900
C872        C  0.48803909  0.90232340  0.21098629    -0.15000
C873        C  0.01994511  0.89813810  0.21722254     0.35600
C874        C  0.03526852  0.89929510  0.25285584    -0.26400
C875        C  0.01699027  0.90671925  0.28526699    -0.15600
C876        C  0.48513559  0.90357836  0.27950483     0.36700
N877        N  0.46351892  0.90537244  0.31152270    -0.89900
H878        H  0.44253927  0.90663474  0.24282799     0.17800
H879        H  0.06191796  0.89486530  0.25508962     0.17800
N880        N  0.03972072  0.89033889  0.18483779    -0.88900
H881        H  0.46718287  0.92653699  0.32524664     0.35200
H882        H  0.46867922  0.88671390  0.32953407     0.40300
H883        H  0.03062623  0.86932668  0.17425781     0.39900
H884        H  0.06471752  0.88640662  0.19231254     0.34800
C885        C  0.10360923  0.89291931  0.01103941    -0.26900
C886        C  0.09740669  0.87613974  0.97776139    -0.15000
C887        C  0.06561601  0.86305646  0.97199052     0.35600
C888        C  0.04072408  0.86712540  0.99955563    -0.26400
C889        C  0.04674030  0.88451424  0.03249763    -0.15600
C890        C  0.07860094  0.89735975  0.03817519     0.36700
N891        N  0.08575108  0.91470270  0.07148791    -0.89900
H892        H  0.12816768  0.90281231  0.01597889     0.17800
H893        H  0.01607016  0.85747898  0.99462203     0.17800
N894        N  0.05903689  0.84491228  0.93897681    -0.88900
H895        H  0.09345184  0.93696131  0.06343007     0.35200
H896        H  0.10576530  0.90387017  0.08532867     0.40300
H897        H  0.05981821  0.85994108  0.91588543     0.39900
H898        H  0.03477104  0.83584000  0.93980070     0.34800
C899        C  0.35112506  0.86886085  0.98708399    -0.26900
C900        C  0.34687221  0.89151523  0.01510418    -0.15000
C901        C  0.31822851  0.91045649  0.01468916     0.35600
C902        C  0.29370780  0.90562942  0.98689736    -0.26400
C903        C  0.29724552  0.88213442  0.95942492    -0.15600
C904        C  0.32672168  0.86398184  0.95922423     0.36700
N905        N  0.33179585  0.84068172  0.93090357    -0.89900
H906        H  0.37388592  0.85504446  0.98682867     0.17800
H907        H  0.27123156  0.91978671  0.98751329     0.17800
N908        N  0.31465701  0.93503168  0.04168678    -0.88900
H909        H  0.35463249  0.82920115  0.93501026     0.35200
H910        H  0.33343791  0.85211323  0.90501450     0.40300
H911        H  0.31257654  0.92476335  0.06821382     0.39900
H912        H  0.29243046  0.94738384  0.03704453     0.34800
C913        C  0.38112054  0.55546935  0.13743689    -0.26900
C914        C  0.35647820  0.55762496  0.10905937    -0.15000
C915        C  0.34911941  0.53111001  0.08750469     0.35600
C916        C  0.36632073  0.50312183  0.09497563    -0.26400
C917        C  0.39121298  0.50117803  0.12305412    -0.15600
C918        C  0.39874364  0.52771848  0.14420831     0.36700
N919        N  0.42396287  0.52655811  0.17280385    -0.89900
H920        H  0.38752382  0.57577103  0.15390726     0.17800
H921        H  0.36246668  0.98371213  0.07281977     0.17800
N922        N  0.32431944  0.53261990  0.05826745    -0.88900
H923        H  0.41285254  0.53275185  0.19828351     0.35200
H924        H  0.44211050  0.54323921  0.16639241     0.40300
H925        H  0.30120807  0.53709463  0.07095469     0.39900
H926        H  0.32213129  0.51110708  0.04486210     0.34800
C927        C  0.37824808  0.80607986  0.12800785    -0.26900
C928        C  0.40344844  0.80754476  0.10031892    -0.15000
C929        C  0.41251116  0.78013304  0.08122853     0.35600
C930        C  0.39664327  0.75209828  0.09053472    -0.26400
C931        C  0.37141110  0.75078618  0.11819414    -0.15600
C932        C  0.36213488  0.77813832  0.13688037     0.36700
N933        N  0.33676518  0.77760842  0.16527061    -0.89900
H934        H  0.37067360  0.82695436  0.14279129     0.17800
H935        H  0.40351502  0.73128516  0.07531201     0.17800
N936        N  0.43801553  0.77988884  0.05300430    -0.88900
H937        H  0.31777723  0.79306626  0.15726900     0.35200
H938        H  0.34730877  0.78574816  0.19026001     0.40300
H939        H  0.46004072  0.78875222  0.06467519     0.39900
H940        H  0.43047315  0.79441905  0.03097880     0.34800
C941        C  0.47043397  0.61317026  0.74531638    -0.26900
C942        C  0.48843843  0.60675954  0.71242761    -0.15000
C943        C  0.02583801  0.60710243  0.71674538     0.35600
C944        C  0.04140212  0.60900505  0.75206170    -0.26400
C945        C  0.02259581  0.60949602  0.78519237    -0.15600
C946        C  0.48668505  0.61570569  0.78033786     0.36700
N947        N  0.46708441  0.62247813  0.81299961    -0.89900
H948        H  0.44342545  0.61551387  0.74415881     0.17800
H949        H  0.06851934  0.60896111  0.75346086     0.17800
N950        N  0.04652306  0.60656793  0.68388775    -0.88900
H951        H  0.44901610  0.60508401  0.81594737     0.35200
H952        H  0.45466029  0.64361482  0.80850842     0.40300
H953        H  0.06280207  0.58753165  0.68596628     0.39900
H954        H  0.06093657  0.62683702  0.68354363     0.34800
C955        C  0.03405327  0.50271540  0.97670961    -0.26900
C956        C  0.02745027  0.53334191  0.98902923    -0.15000
C957        C  0.49954909  0.54135837  0.01172277     0.35600
C958        C  0.47885918  0.51608217  0.02026032    -0.26400
C959        C  0.48715283  0.98523083  0.00771977    -0.15600
C960        C  0.01650415  0.97627055  0.98542855     0.36700
N961        N  0.02706026  0.94560985  0.97514401    -0.89900
H962        H  0.05596065  0.49784190  0.95972639     0.17800
H963        H  0.45618944  0.52052118  0.03612693     0.17800
N964        N  0.48977638  0.57201642  0.02291333    -0.88900
H965        H  0.05050414  0.94159274  0.98729859     0.35200
H966        H  0.03009981  0.94511207  0.94599333     0.40300
H967        H  0.48783291  0.57224932  0.05218396     0.39900
H968        H  0.46594041  0.57636343  0.01195278     0.34800
C969        C  0.15951377  0.74188914  0.89217428    -0.26900
C970        C  0.14136190  0.76604294  0.87504203    -0.15000
C971        C  0.10663538  0.76205958  0.86866195     0.35600
C972        C  0.09105949  0.73394509  0.87872043    -0.26400
C973        C  0.10924573  0.71021285  0.89648569    -0.15600
C974        C  0.14371085  0.71431871  0.90331611     0.36700
N975        N  0.16298506  0.69017448  0.92083118    -0.89900
H976        H  0.18596363  0.74473859  0.89810815     0.17800
H977        H  0.06474027  0.73059072  0.87248115     0.17800
N978        N  0.08716047  0.78631837  0.85161455    -0.88900
H979        H  0.17393819  0.69921746  0.94511911     0.35200
H980        H  0.18224355  0.68377931  0.90252354     0.40300
H981        H  0.06788944  0.79230929  0.87012947     0.39900
H982        H  0.07625808  0.77747680  0.82718794     0.34800
C983        C  0.16290736  0.98524776  0.91091525    -0.26900
C984        C  0.15421638  0.96000395  0.88821727    -0.15000
C985        C  0.13015697  0.96441837  0.85930799     0.35600
C986        C  0.11537721  0.99365925  0.85376750    -0.26400
C987        C  0.12224702  0.51769299  0.87602773    -0.15600
C988        C  0.14789774  0.51443222  0.90341582     0.36700
N989        N  0.15752967  0.54045594  0.92623948    -0.89900
H990        H  0.18100427  0.98193805  0.93328141     0.17800
H991        H  0.09673944  0.99656122  0.83186939     0.17800
N992        N  0.11972869  0.93900505  0.83613561    -0.88900
H993        H  0.17675301  0.53418230  0.94475988     0.35200
H994        H  0.13694063  0.54642859  0.94286895     0.40300
H995        H  0.09388137  0.93620913  0.83930056     0.39900
H996        H  0.12445862  0.94492154  0.80814041     0.34800
C997        C  0.22348180  0.61982999  0.00045471    -0.26900
C998        C  0.21667889  0.63937716  0.03135634    -0.15000
C999        C  0.18528051  0.65413538  0.03386354     0.35600
C1000       C  0.16100796  0.64804169  0.00632835    -0.26400
C1001       C  0.16773765  0.62812993  0.97593447    -0.15600
C1002       C  0.19944500  0.61442266  0.97242831     0.36700
N1003       N  0.20675528  0.59441397  0.94124349    -0.89900
H1004       H  0.24800015  0.60922365  0.99764199     0.17800
H1005       H  0.13644270  0.65866972  0.00870125     0.17800
N1006       N  0.17805158  0.67491637  0.06436161    -0.88900
H1007       H  0.23110446  0.58554173  0.94336663     0.35200
H1008       H  0.20606257  0.60801586  0.91688737     0.40300
H1009       H  0.17845847  0.66185026  0.08915650     0.39900
H1010       H  0.15385469  0.68406090  0.06176301     0.34800
C1011       C  0.47178551  0.64781996  0.99939468    -0.26900
C1012       C  0.46572508  0.63112534  0.96598870    -0.15000
C1013       C  0.43402042  0.61784736  0.96009092     0.35600
C1014       C  0.40903539  0.62184739  0.98742172    -0.26400
C1015       C  0.41510271  0.63858224  0.02075361    -0.15600
C1016       C  0.44701118  0.65138444  0.02683801     0.36700
N1017       N  0.45472908  0.66865223  0.06003570    -0.89900
H1018       H  0.49635920  0.65749326  0.00479221     0.17800
H1019       H  0.38444880  0.61198693  0.98258058     0.17800
N1020       N  0.42730085  0.60049122  0.92648832    -0.88900
H1021       H  0.45135170  0.65412156  0.08328696     0.35200
H1022       H  0.43792988  0.68724465  0.06199198     0.40300
H1023       H  0.42911312  0.61586385  0.90377774     0.39900
H1024       H  0.40273538  0.59212866  0.92659887     0.34800
Fe1025     Fe  0.53776732  0.07850690  0.89299127     1.65800
Fe1026     Fe  0.60484826  0.11881554  0.87001060     1.73200
Fe1027     Fe  0.56654371  0.13084875  0.95223324     1.54400
O1028       O  0.52027335  0.14698513  0.93901471    -0.82300
O1029       O  0.63949072  0.12846524  0.91428494    -0.80600
O1030       O  0.00121702  0.09660897  0.92555089    -0.84800
O1031       O  0.55534895  0.05522873  0.93750592    -0.79700
O1032       O  0.58829030  0.17231080  0.92979398    -0.81400
O1033       O  0.62076470  0.07378851  0.87391290    -0.84200
C1034       C  0.54506374  0.06245917  0.96943335     0.96600
C1035       C  0.99766070  0.12346838  0.94072872     1.04000
O1036       O  0.56925132  0.11036932  0.90439852    -1.13200
O1037       O  0.57268548  0.11087807  0.82230025    -0.75600
O1038       O  0.52233400  0.10185268  0.84683207    -0.79100
O1039       O  0.54481481  0.09103231  0.97980445    -0.79800
C1040       C  0.54056229  0.10857313  0.81896037     0.95500
O1041       O  0.57214096  0.05151526  0.86262202    -0.77700
O1042       O  0.59067123  0.16405436  0.86819548    -0.82900
C1043       C  0.63865745  0.12353100  0.94986872     0.98100
C1044       C  0.59485335  0.18159910  0.89625010     1.04000
O1045       O  0.61237486  0.11488111  0.96650827    -0.78600
C1046       C  0.60324503  0.04957868  0.87046182     1.02300
Fe1047     Fe  0.97413209  0.44160427  0.10210200     1.65800
Fe1048     Fe  0.90768553  0.40001331  0.12431086     1.73200
Fe1049     Fe  0.94611782  0.38955145  0.04205721     1.54400
O1050       O  0.96695929  0.42974838  0.01531575    -0.82300
O1051       O  0.92198358  0.35491811  0.12535544    -0.80600
O1052       O  0.95540000  0.46487871  0.05798871    -0.84800
O1053       O  0.51400586  0.42191691  0.07218266    -0.79700
O1054       O  0.90015994  0.40526065  0.02825530    -0.81400
O1055       O  0.94007588  0.40691952  0.17156521    -0.84200
C1056       C  0.51726996  0.39498568  0.05707857     0.96600
C1057       C  0.96628747  0.45813543  0.02614489     1.04000
O1058       O  0.94323852  0.40929261  0.09026876    -1.13200
O1059       O  0.89141220  0.44494115  0.12175611    -0.75600
O1060       O  0.93967754  0.46761362  0.13353349    -0.79100
O1061       O  0.99266790  0.37398101  0.05483314    -0.79800
C1062       C  0.90841088  0.46929137  0.12661331     0.95500
O1063       O  0.99038711  0.41788926  0.14775953    -0.77700
O1064       O  0.87301575  0.39088061  0.08009447    -0.82900
C1065       C  0.91910065  0.33764855  0.09687174     0.98100
C1066       C  0.87390982  0.39629393  0.04464853     1.04000
O1067       O  0.92533339  0.34756976  0.06358642    -0.78600
C1068       C  0.97218952  0.40900201  0.17482677     1.02300
Fe1069     Fe  0.72485698  0.32789556  0.89101487     1.65800
Fe1070     Fe  0.65744944  0.36983648  0.87225374     1.73200
Fe1071     Fe  0.69894696  0.38011820  0.95248757     1.54400
O1072       O  0.72053488  0.33928319  0.97809186    -0.82300
O1073       O  0.67236753  0.41472494  0.87058806    -0.80600
O1074       O  0.70910732  0.30347806  0.93563556    -0.84800
O1075       O  0.76453500  0.34825202  0.92228560    -0.79700
O1076       O  0.65343995  0.36549992  0.96939387    -0.81400
O1077       O  0.68770709  0.36227911  0.82330294    -0.84200
C1078       C  0.76801207  0.37499312  0.93757101     0.96600
C1079       C  0.71963254  0.31071884  0.96757212     1.04000
O1080       O  0.69389870  0.35990424  0.90488904    -1.13200
O1081       O  0.64110249  0.32516783  0.87563004    -0.75600
O1082       O  0.68899130  0.30260900  0.86090348    -0.79100
O1083       O  0.74476094  0.39491573  0.93614589    -0.79800
C1084       C  0.65821486  0.30091453  0.87013544     0.95500
O1085       O  0.73905256  0.35253133  0.84527726    -0.77700
O1086       O  0.62463608  0.37908801  0.91821940    -0.82900
C1087       C  0.66907587  0.43194133  0.89901452     0.98100
C1088       C  0.62646137  0.37384397  0.95370587     1.04000
O1089       O  0.67705261  0.42238789  0.93205883    -0.78600
C1090       C  0.71968730  0.36029860  0.81867808     1.02300
Fe1091     Fe  0.78905060  0.19274812  0.10252950     1.65800
Fe1092     Fe  0.85532049  0.14992935  0.12330220     1.73200
Fe1093     Fe  0.81420892  0.13906411  0.04274763     1.54400
O1094       O  0.76775667  0.12561367  0.05863688    -0.82300
O1095       O  0.88861445  0.13975396  0.07802916    -0.80600
O1096       O  0.74923117  0.17298105  0.07080802    -0.84800
O1097       O  0.80651106  0.21599456  0.05778877    -0.79700
O1098       O  0.83444463  0.09663369  0.06452149    -0.81400
O1099       O  0.87233230  0.19447052  0.11952802    -0.84200
C1100       C  0.79563306  0.20869866  0.02603289     0.96600
C1101       C  0.74505089  0.14602045  0.05633770     1.04000
O1102       O  0.81934435  0.15983108  0.08996878    -1.13200
O1103       O  0.82415362  0.15810561  0.17154336    -0.75600
O1104       O  0.77355984  0.16900932  0.14829906    -0.79100
O1105       O  0.79405947  0.18004303  0.01596790    -0.79800
C1106       C  0.79210515  0.16062959  0.17542127     0.95500
O1107       O  0.82466564  0.21764656  0.13329384    -0.77700
O1108       O  0.84030159  0.10510962  0.12579959    -0.82900
C1109       C  0.88711698  0.14427975  0.04236643     0.98100
C1110       C  0.84198301  0.08723441  0.09776034     1.04000
O1111       O  0.86028284  0.15222391  0.02607813    -0.78600
C1112       C  0.85567819  0.21897882  0.12516390     1.02300
Fe1113     Fe  0.97297350  0.06867236  0.60475843     1.65800
Fe1114     Fe  0.90794159  0.11144907  0.62889503     1.73200
Fe1115     Fe  0.94542617  0.12233507  0.54584263     1.54400
O1116       O  0.49219939  0.13486387  0.55294733    -0.82300
O1117       O  0.87254381  0.12159468  0.58529518    -0.80600
O1118       O  0.51147120  0.08812189  0.56890940    -0.84800
O1119       O  0.95206076  0.04724430  0.56070003    -0.79700
O1120       O  0.92561370  0.16459783  0.56847537    -0.81400
O1121       O  0.89081874  0.06656979  0.62607937    -0.84200
C1122       C  0.96485994  0.05352785  0.52967515     0.96600
C1123       C  0.51535518  0.11467126  0.55289873     1.04000
O1124       O  0.94288912  0.10214568  0.59407904    -1.13200
O1125       O  0.94155652  0.10363570  0.67547095    -0.75600
O1126       O  0.99091014  0.09106915  0.65018555    -0.79100
O1127       O  0.96541234  0.08186311  0.51839078    -0.79800
C1128       C  0.97372114  0.10034330  0.67784231     0.95500
O1129       O  0.93888335  0.04340249  0.63696440    -0.77700
O1130       O  0.92267051  0.15645948  0.63008127    -0.82900
C1131       C  0.87279906  0.11672897  0.54970526     0.98100
C1132       C  0.91964938  0.17430258  0.60195804     1.04000
O1133       O  0.89879181  0.10813722  0.53245015    -0.78600
C1134       C  0.90770687  0.04188845  0.62992215     1.02300
Fe1135     Fe  0.53782289  0.43577425  0.39650573     1.65800
Fe1136     Fe  0.60307587  0.39285954  0.37365102     1.73200
Fe1137     Fe  0.56348574  0.38113716  0.45508140     1.54400
O1138       O  0.54313065  0.42149119  0.48278167    -0.82300
O1139       O  0.58784792  0.34798370  0.37144081    -0.80600
O1140       O  0.55706426  0.45710586  0.44162683    -0.84800
O1141       O  0.00007059  0.41774306  0.42699091    -0.79700
O1142       O  0.60972935  0.39492580  0.47047555    -0.81400
O1143       O  0.57103358  0.40182629  0.32624234    -0.84200
C1144       C  0.99639834  0.39074467  0.44203567     0.96600
C1145       C  0.54491218  0.45017723  0.47286811     1.04000
O1146       O  0.56761948  0.40220386  0.40761814    -1.13200
O1147       O  0.62042748  0.43737499  0.37738638    -0.75600
O1148       O  0.57274782  0.46143404  0.36576130    -0.79100
O1149       O  0.51663092  0.36741035  0.44042392    -0.79800
C1150       C  0.60400464  0.46217411  0.37258548     0.95500
O1151       O  0.52109763  0.41392830  0.35015246    -0.77700
O1152       O  0.63722674  0.38241872  0.41811974    -0.82900
C1153       C  0.59131504  0.33008308  0.39939451     0.98100
C1154       C  0.63633727  0.38711292  0.45373809     1.04000
O1155       O  0.58411498  0.33906076  0.43282282    -0.78600
C1156       C  0.53907544  0.40569988  0.32272096     1.02300
Fe1157     Fe  0.78991879  0.31838173  0.60334290     1.65800
Fe1158     Fe  0.85455885  0.36178904  0.62745520     1.73200
Fe1159     Fe  0.82067425  0.36856348  0.54221171     1.54400
O1160       O  0.80032975  0.32750524  0.51637157    -0.82300
O1161       O  0.83896544  0.40652286  0.62524142    -0.80600
O1162       O  0.81001106  0.29380799  0.56113820    -0.84800
O1163       O  0.75249451  0.33888311  0.56859740    -0.79700
O1164       O  0.86767367  0.35218130  0.53286685    -0.81400
O1165       O  0.82020088  0.35521116  0.67333051    -0.84200
C1166       C  0.74949987  0.36526629  0.55197209     0.96600
C1167       C  0.79931210  0.29951730  0.52887627     1.04000
O1168       O  0.82090839  0.35071382  0.59170197    -1.13200
O1169       O  0.87196420  0.31707822  0.62749388    -0.75600
O1170       O  0.82354544  0.29382272  0.63749887    -0.79100
O1171       O  0.77342391  0.38451421  0.55059813    -0.79800
C1172       C  0.85495743  0.29262379  0.63163878     0.95500
O1173       O  0.77151139  0.34297307  0.64688581    -0.77700
O1174       O  0.89111278  0.37087246  0.58483994    -0.82900
C1175       C  0.84462480  0.42265573  0.59621387     0.98100
C1176       C  0.89267144  0.36318632  0.55004456     1.04000
O1177       O  0.84054928  0.41153522  0.56300585    -0.78600
C1178       C  0.78803973  0.35222148  0.67493049     1.02300
Fe1179     Fe  0.72416077  0.18528564  0.39355458     1.65800
Fe1180     Fe  0.65893378  0.14243087  0.37075220     1.73200
Fe1181     Fe  0.69954902  0.12986602  0.45165900     1.54400
O1182       O  0.74660487  0.11714580  0.43639560    -0.82300
O1183       O  0.62529272  0.13086086  0.41523715    -0.80600
O1184       O  0.76418695  0.16487341  0.42486701    -0.84800
O1185       O  0.70505216  0.20593136  0.43920376    -0.79700
O1186       O  0.68010770  0.08794537  0.42820583    -0.81400
O1187       O  0.64093141  0.18668324  0.37577335    -0.84200
C1188       C  0.71812728  0.19887042  0.46999367     0.96600
C1189       C  0.76888716  0.13783886  0.43926162     1.04000
O1190       O  0.69466267  0.15154324  0.40460789    -1.13200
O1191       O  0.69025760  0.15236074  0.32324375    -0.75600
O1192       O  0.74077813  0.16381780  0.34642311    -0.79100
O1193       O  0.71929708  0.17018453  0.48005051    -0.79800
C1194       C  0.72212996  0.15609983  0.31915313     0.95500
O1195       O  0.68818510  0.21098844  0.36375370    -0.77700
O1196       O  0.67494178  0.09787836  0.36707939    -0.82900
C1197       C  0.62632343  0.13467478  0.45101046     0.98100
C1198       C  0.67315205  0.07930672  0.39456686     1.04000
O1199       O  0.65290638  0.14223400  0.46799001    -0.78600
C1200       C  0.65712327  0.21161899  0.37186419     1.02300
C1201       C  0.78245662  0.24378083  0.52743132    -0.26900
C1202       C  0.78064161  0.27364730  0.51054605    -0.15000
C1203       C  0.75651269  0.27855712  0.48221873     0.35600
C1204       C  0.73510860  0.25437294  0.47204618    -0.26400
C1205       C  0.73706212  0.22442867  0.48864050    -0.15600
C1206       C  0.76095215  0.21952813  0.51725158     0.36700
N1207       N  0.76388455  0.19056626  0.53694492    -0.89900
H1208       H  0.80035435  0.23921708  0.54969743     0.17800
H1209       H  0.71705197  0.25920685  0.45002461     0.17800
N1210       N  0.75254821  0.30780625  0.46347258    -0.88900
H1211       H  0.77064867  0.17321932  0.51801958     0.35200
H1212       H  0.74060597  0.18513406  0.54862637     0.40300
H1213       H  0.77538934  0.31398358  0.45134190     0.39900
H1214       H  0.74574190  0.32440649  0.48334509     0.34800
C1215       C  0.95480359  0.40747074  0.49030237    -0.26900
C1216       C  0.96775882  0.38371778  0.46743072    -0.15000
C1217       C  0.95777589  0.35271170  0.47453854     0.35600
C1218       C  0.93488728  0.34620684  0.50341904    -0.26400
C1219       C  0.92245398  0.36984988  0.52665967    -0.15600
C1220       C  0.93285983  0.40079602  0.52030950     0.36700
N1221       N  0.92003715  0.42548076  0.54336281    -0.89900
H1222       H  0.96267768  0.43123347  0.48553362     0.17800
H1223       H  0.92627026  0.32251576  0.50730578     0.17800
N1224       N  0.97051270  0.32769963  0.45215206    -0.88900
H1225       H  0.92913503  0.44700090  0.53428318     0.35200
H1226       H  0.92935875  0.42205107  0.57051630     0.40300
H1227       H  0.95020916  0.31639306  0.43969865     0.39900
H1228       H  0.98250960  0.31184164  0.47002999     0.34800
C1229       C  0.72534941  0.38377288  0.49188972    -0.26900
C1230       C  0.71985289  0.37193782  0.52834784    -0.15000
C1231       C  0.68695993  0.36491659  0.53961449     0.35600
C1232       C  0.66047646  0.37025935  0.51470533    -0.26400
C1233       C  0.66594523  0.38165539  0.47801418    -0.15600
C1234       C  0.69883629  0.38808643  0.46633750     0.36700
N1235       N  0.70522225  0.39903389  0.42887005    -0.89900
H1236       H  0.75071066  0.38861476  0.48280872     0.17800
H1237       H  0.63529081  0.36496609  0.52404081     0.17800
N1238       N  0.67956982  0.35312341  0.57632839    -0.88900
H1239       H  0.73091250  0.40215327  0.42464758     0.35200
H1240       H  0.69410062  0.42096771  0.42616884     0.40300
H1241       H  0.68933784  0.36852476  0.59616114     0.39900
H1242       H  0.69122288  0.33150097  0.57964343     0.34800
C1243       C  0.63472932  0.04599147  0.35746748    -0.26900
C1244       C  0.65857245  0.04824800  0.38668029    -0.15000
C1245       C  0.66583584  0.02168516  0.40841557     0.35600
C1246       C  0.64869769  0.99378024  0.40092984    -0.26400
C1247       C  0.62431444  0.99188512  0.37236992    -0.15600
C1248       C  0.61746103  0.01824785  0.35042335     0.36700
N1249       N  0.59317593  0.01692833  0.32084978    -0.89900
H1250       H  0.62856788  0.06622176  0.34056673     0.17800
H1251       H  0.65369359  0.47366076  0.42150596     0.17800
N1252       N  0.69035377  0.02310014  0.43793246    -0.88900
H1253       H  0.60509194  0.02288706  0.29572098     0.35200
H1254       H  0.57479372  0.03370140  0.32620743     0.40300
H1255       H  0.71355284  0.02763836  0.42549383     0.39900
H1256       H  0.69257277  0.00152693  0.45135200     0.34800
C1257       C  0.59872326  0.27311282  0.41327559    -0.26900
C1258       C  0.60753089  0.29945616  0.39236829    -0.15000
C1259       C  0.63340735  0.29686994  0.36528343     0.35600
C1260       C  0.64894932  0.26811497  0.35865577    -0.26400
C1261       C  0.63953215  0.24156560  0.37867736    -0.15600
C1262       C  0.61455225  0.24421486  0.40690297     0.36700
N1263       N  0.60604241  0.21779848  0.42980620    -0.89900
H1264       H  0.57958410  0.27510541  0.43468018     0.17800
H1265       H  0.66863424  0.26662844  0.33780280     0.17800
N1266       N  0.64495351  0.32374225  0.34526897    -0.88900
H1267       H  0.58722810  0.22356409  0.44897743     0.35200
H1268       H  0.62720035  0.21192351  0.44568496     0.40300
H1269       H  0.64224308  0.31953878  0.31653526     0.39900
H1270       H  0.67047188  0.32655493  0.35097327     0.34800
C1271       C  0.88636650  0.45460162  0.63011423    -0.26900
C1272       C  0.86095884  0.45316000  0.60256618    -0.15000
C1273       C  0.85234570  0.48043134  0.58285533     0.35600
C1274       C  0.85955057  0.01103089  0.60462108    -0.26400
C1275       C  0.89088186  0.01139799  0.62320523    -0.15600
C1276       C  0.90295892  0.48258586  0.63854394     0.36700
N1277       N  0.92889159  0.48326798  0.66655272    -0.89900
H1278       H  0.89353973  0.43359002  0.64501237     0.17800
H1279       H  0.84707766  0.03266930  0.59770986     0.17800
N1280       N  0.82677841  0.48067507  0.55462762    -0.88900
H1281       H  0.93290274  0.46104080  0.67772533     0.35200
H1282       H  0.92040113  0.49717503  0.68863117     0.40300
H1283       H  0.80461713  0.47234681  0.56656700     0.39900
H1284       H  0.81472795  0.97296169  0.54958502     0.34800
C1285       C  0.89343518  0.21275415  0.64575333    -0.26900
C1286       C  0.90559724  0.20599443  0.60929978    -0.15000
C1287       C  0.90064802  0.22832024  0.58069219     0.35600
C1288       C  0.88444791  0.25654659  0.58904316    -0.26400
C1289       C  0.87186515  0.26262974  0.62512827    -0.15600
C1290       C  0.87629548  0.24055053  0.65360893     0.36700
N1291       N  0.86364902  0.24635157  0.69054187    -0.89900
H1292       H  0.89630855  0.19603391  0.66834400     0.17800
H1293       H  0.88099861  0.27361595  0.56688729     0.17800
N1294       N  0.91142716  0.22240511  0.54305216    -0.88900
H1295       H  0.88375746  0.24534416  0.70934048     0.35200
H1296       H  0.84706395  0.22843967  0.69742117     0.40300
H1297       H  0.92794957  0.24006581  0.53517251     0.39900
H1298       H  0.89045158  0.22367641  0.52546941     0.34800
C1299       C  0.98508759  0.99874853  0.53058548    -0.26900
C1300       C  0.98489258  0.02817199  0.51245862    -0.15000
C1301       C  0.50962757  0.03113969  0.48300596     0.35600
C1302       C  0.53127895  0.00689237  0.47299834    -0.26400
C1303       C  0.52752332  0.47608368  0.49249627    -0.15600
C1304       C  0.01064080  0.47689865  0.51811975     0.36700
N1305       N  0.00968047  0.44763722  0.53772928    -0.89900
H1306       H  0.96801898  0.99418567  0.55355874     0.17800
H1307       H  0.55038464  0.01185726  0.45225317     0.17800
N1308       N  0.51439188  0.06145120  0.46712734    -0.88900
H1309       H  0.99146906  0.44798484  0.55878330     0.35200
H1310       H  0.03273419  0.44478333  0.55130024     0.40300
H1311       H  0.51245206  0.05960748  0.43794863     0.39900
H1312       H  0.53874657  0.06863272  0.47346952     0.34800
C1313       C  0.79445006  0.10683630  0.49145131    -0.26900
C1314       C  0.79710104  0.13204883  0.46602478    -0.15000
C1315       C  0.82364753  0.15339740  0.47087670     0.35600
C1316       C  0.84658118  0.14894612  0.50051345    -0.26400
C1317       C  0.84371533  0.12377609  0.52556972    -0.15600
C1318       C  0.81738965  0.10253728  0.52081843     0.36700
N1319       N  0.81397456  0.07592625  0.54473686    -0.89900
H1320       H  0.77406627  0.09038439  0.48896914     0.17800
H1321       H  0.86752839  0.16475138  0.50350085     0.17800
N1322       N  0.82725234  0.17953801  0.44597259    -0.88900
H1323       H  0.81208757  0.08366612  0.57246683     0.35200
H1324       H  0.83569436  0.06247180  0.54228987     0.40300
H1325       H  0.83275819  0.17081496  0.41930739     0.39900
H1326       H  0.84762359  0.19327174  0.45393863     0.34800
C1327       C  0.53970329  0.13805954  0.49506255    -0.26900
C1328       C  0.54466403  0.12048088  0.52818552    -0.15000
C1329       C  0.57604223  0.10648991  0.53438922     0.35600
C1330       C  0.60191157  0.11095027  0.50824642    -0.26400
C1331       C  0.59690661  0.12845856  0.47517285    -0.15600
C1332       C  0.56527625  0.14170572  0.46821369     0.36700
N1333       N  0.55947912  0.15950727  0.43461771    -0.89900
H1334       H  0.51534657  0.14823080  0.48942863     0.17800
H1335       H  0.62621552  0.10061259  0.51385652     0.17800
N1336       N  0.58193024  0.08813320  0.56736575    -0.88900
H1337       H  0.53522214  0.16873642  0.43450978     0.35200
H1338       H  0.56078745  0.14420314  0.41191088     0.40300
H1339       H  0.60188543  0.09801820  0.58211328     0.39900
H1340       H  0.58920530  0.06585417  0.55885966     0.34800
C1341       C  0.73946290  0.15882466  0.21367588    -0.26900
C1342       C  0.77471998  0.15538345  0.21233183    -0.15000
C1343       C  0.79179564  0.14866772  0.24613692     0.35600
C1344       C  0.77374475  0.14781397  0.28022177    -0.26400
C1345       C  0.73879363  0.15310558  0.28165092    -0.15600
C1346       C  0.72147728  0.15800041  0.24764290     0.36700
N1347       N  0.68591045  0.16337511  0.24760146    -0.89900
H1348       H  0.72560928  0.16332088  0.18806803     0.17800
H1349       H  0.78729510  0.14343935  0.30608198     0.17800
N1350       N  0.82735276  0.14334713  0.24610074    -0.88900
H1351       H  0.67687367  0.16571327  0.22016862     0.35200
H1352       H  0.68159402  0.18471903  0.26077530     0.40300
H1353       H  0.83172968  0.12263788  0.23153869     0.39900
H1354       H  0.83615598  0.13971161  0.27342156     0.34800
C1355       C  0.71758103  0.35665882  0.74870529    -0.26900
C1356       C  0.73553819  0.36440110  0.78103071    -0.15000
C1357       C  0.77002295  0.37185617  0.77747000     0.35600
C1358       C  0.78623096  0.36849813  0.74254963    -0.26400
C1359       C  0.76889786  0.35835981  0.71055701    -0.15600
C1360       C  0.73351450  0.35351504  0.71385430     0.36700
N1361       N  0.71275685  0.34460392  0.68286642    -0.89900
H1362       H  0.69114517  0.35124413  0.75080134     0.17800
H1363       H  0.81279729  0.37327080  0.74061016     0.17800
N1364       N  0.78870277  0.38234921  0.80955973    -0.88900
H1365       H  0.72043910  0.32287266  0.67294912     0.35200
H1366       H  0.71457019  0.36142546  0.66173270     0.40300
H1367       H  0.77850183  0.40367889  0.81784367     0.39900
H1368       H  0.81367686  0.38658267  0.80241551     0.33200
C1369       C  0.74595691  0.22920838  0.99288933    -0.26900
C1370       C  0.77867290  0.23416636  0.00567502    -0.15000
C1371       C  0.79037302  0.26509033  0.00952371     0.35600
C1372       C  0.76931826  0.29027032  0.00073749    -0.26400
C1373       C  0.73661563  0.28529679  0.98795150    -0.15600
C1374       C  0.72486426  0.25439595  0.98425651     0.36700
N1375       N  0.69137480  0.24857355  0.97156577    -0.89900
H1376       H  0.73605829  0.20577687  0.99148845     0.17800
H1377       H  0.77919352  0.31371234  0.00214920     0.17800
N1378       N  0.82371746  0.27095948  0.02267312    -0.88900
H1379       H  0.67905770  0.23559880  0.99220630     0.35200
H1380       H  0.69268139  0.23501879  0.94727121     0.40300
H1381       H  0.82211110  0.28443495  0.04702057     0.39900
H1382       H  0.83619797  0.28403707  0.00226129     0.34800
C1383       C  0.97044530  0.40013699  0.24445914    -0.26900
C1384       C  0.98934367  0.40277809  0.21151990    -0.15000
C1385       C  0.52606870  0.40492292  0.21678084     0.35600
C1386       C  0.54117303  0.40377583  0.25255269    -0.26400
C1387       C  0.52196205  0.40265633  0.28542203    -0.15600
C1388       C  0.98579069  0.39907334  0.27989487     0.36700
N1389       N  0.96419106  0.39597951  0.31178326    -0.89900
H1390       H  0.94333616  0.40002984  0.24292417     0.17800
H1391       H  0.56822298  0.40468100  0.25471020     0.17800
N1392       N  0.54699160  0.40607865  0.18394372    -0.88900
H1393       H  0.96478079  0.41640685  0.32754032     0.35200
H1394       H  0.97227303  0.37710746  0.32807000     0.40300
H1395       H  0.54322627  0.38544751  0.16906714     0.39900
H1396       H  0.57235061  0.40647354  0.19132748     0.34800
C1397       C  0.60433306  0.39263470  0.01461244    -0.26900
C1398       C  0.59772992  0.37957577  0.97903992    -0.15000
C1399       C  0.56469112  0.37138644  0.96970164     0.35600
C1400       C  0.53933437  0.37504888  0.99675565    -0.26400
C1401       C  0.54598736  0.38827604  0.03220650    -0.15600
C1402       C  0.57868976  0.39758999  0.04083064     0.36700
N1403       N  0.58596470  0.41191341  0.07614802    -0.89900
H1404       H  0.62960579  0.39950025  0.02196054     0.17800
H1405       H  0.51386943  0.36877211  0.98950256     0.17800
N1406       N  0.55705596  0.35892576  0.93328894    -0.88900
H1407       H  0.59627321  0.43381928  0.07080131     0.35200
H1408       H  0.60408776  0.39843614  0.08985230     0.40300
H1409       H  0.56044605  0.37678291  0.91366292     0.39900
H1410       H  0.53180416  0.35272086  0.93168002     0.34800
C1411       C  0.85167892  0.37051016  0.98830244    -0.26900
C1412       C  0.84540836  0.38934172  0.01982490    -0.15000
C1413       C  0.81408261  0.40373136  0.02387738     0.35600
C1414       C  0.78983305  0.39964540  0.99566761    -0.26400
C1415       C  0.79610568  0.38096477  0.96381461    -0.15600
C1416       C  0.82731927  0.36597378  0.96039270     0.36700
N1417       N  0.83430421  0.34652350  0.92857003    -0.89900
H1418       H  0.87602732  0.35957143  0.98526793     0.17800
H1419       H  0.76556613  0.41061331  0.99907579     0.17800
N1420       N  0.80746496  0.42324748  0.05573191    -0.88900
H1421       H  0.85840365  0.33705061  0.93052794     0.35200
H1422       H  0.83403795  0.36069057  0.90466471     0.40300
H1423       H  0.80765379  0.40907657  0.07963518     0.39900
H1424       H  0.78342855  0.43285752  0.05390811     0.34800
C1425       C  0.88210172  0.05352625  0.13235741    -0.26900
C1426       C  0.85696470  0.05606560  0.10458230    -0.15000
C1427       C  0.84826868  0.02954135  0.08372246     0.35600
C1428       C  0.86487742  0.00119466  0.09107704    -0.26400
C1429       C  0.89032428  0.99887255  0.11852442    -0.15600
C1430       C  0.89894573  0.02540178  0.13919425     0.36700
N1431       N  0.92447756  0.02386963  0.16742396    -0.89900
H1432       H  0.88940626  0.07378544  0.14843138     0.17800
H1433       H  0.85874154  0.48085201  0.07830262     0.17800
N1434       N  0.82265679  0.03138158  0.05541176    -0.88900
H1435       H  0.91386897  0.03056991  0.19299015     0.35200
H1436       H  0.94303037  0.04001662  0.16051356     0.40300
H1437       H  0.80008025  0.03660479  0.06888032     0.39900
H1438       H  0.81942053  0.00978170  0.04249533     0.34800
C1439       C  0.87834353  0.30459940  0.13037923    -0.26900
C1440       C  0.90410429  0.30667578  0.10345365    -0.15000
C1441       C  0.91414051  0.27957601  0.08432893     0.35600
C1442       C  0.89868689  0.25118852  0.09287524    -0.26400
C1443       C  0.87268159  0.24923168  0.11959489    -0.15600
C1444       C  0.86243172  0.27633539  0.13829527     0.36700
N1445       N  0.83618729  0.27527271  0.16564009    -0.89900
H1446       H  0.87003083  0.32526509  0.14509899     0.17800
H1447       H  0.90653964  0.23059758  0.07772763     0.17800
N1448       N  0.94021292  0.28001446  0.05675718    -0.88900
H1449       H  0.81723081  0.29055155  0.15704006     0.35200
H1450       H  0.84580131  0.28335429  0.19111843     0.40300
H1451       H  0.96177853  0.28930448  0.06902590     0.39900
H1452       H  0.93276149  0.29442240  0.03458554     0.34800
C1453       C  0.97471301  0.11370794  0.74665165    -0.26900
C1454       C  0.99232398  0.10611496  0.71388542    -0.15000
C1455       C  0.52556434  0.11038563  0.71292517     0.35600
C1456       C  0.54157703  0.11211615  0.74819922    -0.26400
C1457       C  0.52311238  0.11163236  0.78168421    -0.15600
C1458       C  0.99120655  0.11639992  0.78146375     0.36700
N1459       N  0.97196285  0.12406694  0.81411205    -0.89900
H1460       H  0.94779609  0.11687409  0.74558518     0.17800
H1461       H  0.56868681  0.11285557  0.74927062     0.17800
N1462       N  0.54563745  0.11112537  0.67961233    -0.88900
H1463       H  0.95346406  0.10711837  0.81754093     0.35200
H1464       H  0.96006295  0.14540151  0.80927857     0.40300
H1465       H  0.56262601  0.09259115  0.68082233     0.39900
H1466       H  0.55931093  0.13183875  0.67956578     0.34800
C1467       C  0.53796254  0.00609440  0.98037866    -0.26900
C1468       C  0.52858203  0.03677540  0.98997151    -0.15000
C1469       C  0.99720803  0.03722766  0.00572288     0.35600
C1470       C  0.97662653  0.01174745  0.01369150    -0.26400
C1471       C  0.98369955  0.48369017  0.00656600    -0.15600
C1472       C  0.51743748  0.48031403  0.99030188     0.36700
N1473       N  0.52772453  0.44957170  0.98010828    -0.89900
H1474       H  0.56090713  0.00197265  0.96487129     0.17800
H1475       H  0.95341888  0.01595681  0.02865880     0.17800
N1476       N  0.98629437  0.06787398  0.01553766    -0.88900
H1477       H  0.55135120  0.44560293  0.99188856     0.35200
H1478       H  0.53035954  0.44886522  0.95092822     0.40300
H1479       H  0.98277232  0.06854199  0.04460056     0.39900
H1480       H  0.96300866  0.07165652  0.00285361     0.34800
C1481       C  0.64814102  0.24567721  0.85257743    -0.26900
C1482       C  0.64195927  0.27054072  0.87669396    -0.15000
C1483       C  0.62081522  0.26604341  0.90811353     0.35600
C1484       C  0.60543749  0.23708835  0.91416299    -0.26400
C1485       C  0.61062303  0.21238981  0.88925044    -0.15600
C1486       C  0.63274545  0.21678052  0.85844670     0.36700
N1487       N  0.64059469  0.19167008  0.83355011    -0.89900
H1488       H  0.66488340  0.24868982  0.82892021     0.17800
H1489       H  0.58938911  0.23397859  0.93838982     0.17800
N1490       N  0.61576878  0.29059782  0.93467256    -0.88900
H1491       H  0.66647935  0.18792754  0.83437957     0.35200
H1492       H  0.63413292  0.19847759  0.80627760     0.40300
H1493       H  0.62381249  0.28273602  0.96100533     0.39900
H1494       H  0.59008656  0.29517361  0.93629908     0.34800
C1495       C  0.66192917  0.48868095  0.91303709    -0.26900
C1496       C  0.65215183  0.46233225  0.89293472    -0.15000
C1497       C  0.62532260  0.46481629  0.86683269     0.35600
C1498       C  0.61025872  0.49383966  0.85995837    -0.26400
C1499       C  0.61948498  0.01903539  0.87781878    -0.15600
C1500       C  0.64328832  0.01556177  0.90724009     0.36700
N1501       N  0.65095412  0.04137276  0.93132329    -0.89900
H1502       H  0.68176584  0.48664772  0.93369679     0.17800
H1503       H  0.59003754  0.49567186  0.83974250     0.17800
N1504       N  0.61289526  0.43765153  0.84791310    -0.88900
H1505       H  0.66887199  0.03502261  0.95138020     0.35200
H1506       H  0.62917167  0.04698399  0.94613712     0.40300
H1507       H  0.60229624  0.42312936  0.86825252     0.39900
H1508       H  0.59359710  0.44353054  0.82931638     0.34800
C1509       C  0.72221085  0.11939403  0.99997158    -0.26900
C1510       C  0.71675761  0.13997947  0.03025580    -0.15000
C1511       C  0.68629069  0.15649660  0.03211033     0.35600
C1512       C  0.66180158  0.15143761  0.00440236    -0.26400
C1513       C  0.66732229  0.13076324  0.97443056    -0.15600
C1514       C  0.69797447  0.11494441  0.97182939     0.36700
N1515       N  0.70396563  0.09376993  0.94141773    -0.89900
H1516       H  0.74589995  0.10720479  0.99763717     0.17800
H1517       H  0.63796669  0.16347211  0.00635146     0.17800
N1518       N  0.68018614  0.17807577  0.06210614    -0.88900
H1519       H  0.72754546  0.08335243  0.94413282     0.35200
H1520       H  0.70451334  0.10679486  0.91660216     0.40300
H1521       H  0.67953191  0.16535682  0.08715753     0.39900
H1522       H  0.65665164  0.18852411  0.05906394     0.34800
C1523       C  0.97468357  0.14331790  0.00047226    -0.26900
C1524       C  0.96851561  0.13007408  0.96495574    -0.15000
C1525       C  0.93588238  0.12076009  0.95562492     0.35600
C1526       C  0.90999750  0.12535804  0.98180079    -0.26400
C1527       C  0.91618560  0.13849595  0.01746871    -0.15600
C1528       C  0.94912964  0.14708321  0.02690862     0.36700
N1529       N  0.95735031  0.16006437  0.06272493    -0.89900
H1530       H  0.99994786  0.14980196  0.00835314     0.17800
H1531       H  0.88476810  0.11842203  0.97438884     0.17800
N1532       N  0.92919395  0.10674985  0.91980254    -0.88900
H1533       H  0.95173016  0.14369431  0.08352766     0.35200
H1534       H  0.94262685  0.17988359  0.06692499     0.40300
H1535       H  0.93415339  0.12339484  0.89909660     0.39900
H1536       H  0.90382269  0.10110669  0.91739929     0.34800
Fe1537     Fe  0.53752360  0.57730101  0.89421782     1.65800
Fe1538     Fe  0.60309439  0.61980733  0.87137835     1.73200
Fe1539     Fe  0.56409977  0.63093436  0.95324373     1.54400
O1540       O  0.51730503  0.64518115  0.93938651    -0.82300
O1541       O  0.63744106  0.63016219  0.91570013    -0.80600
O1542       O  0.00070901  0.59695432  0.92798855    -0.84800
O1543       O  0.55631492  0.55488377  0.93899141    -0.79700
O1544       O  0.58447677  0.67293205  0.93105602    -0.81400
O1545       O  0.62060081  0.57531149  0.87514134    -0.84200
C1546       C  0.54549318  0.56204369  0.97076150     0.96600
C1547       C  0.99753598  0.62377849  0.94346356     1.04000
O1548       O  0.56774660  0.61031250  0.90559338    -1.13200
O1549       O  0.57104121  0.61116613  0.82395484    -0.75600
O1550       O  0.52082580  0.60001377  0.84793284    -0.79100
O1551       O  0.54408827  0.59063816  0.98080828    -0.79800
C1552       C  0.53901410  0.60803754  0.82047721     0.95500
O1553       O  0.57279910  0.55177504  0.86363815    -0.77700
O1554       O  0.58742385  0.66455324  0.86950664    -0.82900
C1555       C  0.63659217  0.62524803  0.95129329     0.98100
C1556       C  0.59126861  0.68208699  0.89758842     1.04000
O1557       O  0.61032360  0.61659933  0.96795521    -0.78600
C1558       C  0.60388253  0.55064551  0.87165549     1.02300
Fe1559     Fe  0.97453027  0.94034579  0.10205146     1.65800
Fe1560     Fe  0.90704777  0.89940269  0.12215879     1.73200
Fe1561     Fe  0.94854828  0.88694797  0.04197935     1.54400
O1562       O  0.97025384  0.92688129  0.01493681    -0.82300
O1563       O  0.92096906  0.85422562  0.12498309    -0.80600
O1564       O  0.95815732  0.96302857  0.05645028    -0.84800
O1565       O  0.51364192  0.92071696  0.07004258    -0.79700
O1566       O  0.90266955  0.90109348  0.02458678    -0.81400
O1567       O  0.93758137  0.90720353  0.17084025    -0.84200
C1568       C  0.51672729  0.89390036  0.05470014     0.96600
C1569       C  0.96939771  0.95552540  0.02495558     1.04000
O1570       O  0.94363200  0.90808294  0.08928108    -1.13200
O1571       O  0.89104688  0.94424156  0.11799212    -0.75600
O1572       O  0.93898845  0.96723233  0.13105598    -0.79100
O1573       O  0.99444763  0.87203327  0.05841954    -0.79800
C1574       C  0.90779486  0.96863223  0.12345977     0.95500
O1575       O  0.98883526  0.91739526  0.14911165    -0.77700
O1576       O  0.87392851  0.88991413  0.07671077    -0.82900
C1577       C  0.91929848  0.83642164  0.09687709     0.98100
C1578       C  0.87567676  0.89402413  0.04104578     1.04000
O1579       O  0.92717907  0.84544684  0.06371176    -0.78600
C1580       C  0.96951190  0.90949891  0.17562932     1.02300
Fe1581     Fe  0.72254899  0.82567110  0.89018678     1.65800
Fe1582     Fe  0.65646165  0.86897257  0.86908613     1.73200
Fe1583     Fe  0.69554638  0.87735954  0.95116776     1.54400
O1584       O  0.71656545  0.83635873  0.97691306    -0.82300
O1585       O  0.67225761  0.91356397  0.86878059    -0.80600
O1586       O  0.70501647  0.80126159  0.93400371    -0.84800
O1587       O  0.76175943  0.84585078  0.92267634    -0.79700
O1588       O  0.64953862  0.86187403  0.96475239    -0.81400
O1589       O  0.68800066  0.86148817  0.82150218    -0.84200
C1590       C  0.76562347  0.87244799  0.93839075     0.96600
C1591       C  0.71580671  0.80794992  0.96592366     1.04000
O1592       O  0.69198870  0.85818897  0.90286824    -1.13200
O1593       O  0.63908286  0.82465580  0.87120137    -0.75600
O1594       O  0.68689645  0.80105076  0.85908885    -0.79100
O1595       O  0.74223205  0.89238532  0.93814764    -0.79800
C1596       C  0.65587258  0.79999192  0.86747835     0.95500
O1597       O  0.73844345  0.85014237  0.84502661    -0.77700
O1598       O  0.62238463  0.87838501  0.91375185    -0.82900
C1599       C  0.66775071  0.93029852  0.89740650     0.98100
C1600       C  0.62332187  0.87192472  0.94895634     1.04000
O1601       O  0.67433984  0.92008546  0.93060314    -0.78600
C1602       C  0.72003723  0.85907736  0.81809980     1.02300
Fe1603     Fe  0.78665995  0.69199961  0.10381663     1.65800
Fe1604     Fe  0.85369130  0.65010426  0.12473791     1.73200
Fe1605     Fe  0.81292096  0.63831508  0.04409252     1.54400
O1606       O  0.76640342  0.62441733  0.05940593    -0.82300
O1607       O  0.88732139  0.64016024  0.07965287    -0.80600
O1608       O  0.74725404  0.67148351  0.07265377    -0.84800
O1609       O  0.80307767  0.71532948  0.05849671    -0.79700
O1610       O  0.83370895  0.59630390  0.06630605    -0.81400
O1611       O  0.87011825  0.69465741  0.12089777    -0.84200
C1612       C  0.79307548  0.70743192  0.02652506     0.96600
C1613       C  0.74345751  0.64467748  0.05772762     1.04000
O1614       O  0.81753621  0.65944103  0.09128464    -1.13200
O1615       O  0.82268113  0.65848231  0.17286820    -0.75600
O1616       O  0.77150046  0.66843421  0.15030643    -0.79100
O1617       O  0.79233171  0.67868830  0.01681787    -0.79800
C1618       C  0.79069385  0.66085085  0.17717961     0.95500
O1619       O  0.82221911  0.71779921  0.13373009    -0.77700
O1620       O  0.83917478  0.60515482  0.12753977    -0.82900
C1621       C  0.88589964  0.64463893  0.04398038     0.98100
C1622       C  0.84133488  0.58719530  0.09962663     1.04000
O1623       O  0.85894793  0.65198188  0.02752279    -0.78600
C1624       C  0.85334954  0.71917620  0.12600340     1.02300
Fe1625     Fe  0.97526734  0.56946937  0.60333273     1.65800
Fe1626     Fe  0.90838603  0.61004800  0.62646221     1.73200
Fe1627     Fe  0.94855898  0.62439665  0.54567705     1.54400
O1628       O  0.48971688  0.63475160  0.55463197    -0.82300
O1629       O  0.87401451  0.61964436  0.58190212    -0.80600
O1630       O  0.50934899  0.58815371  0.57044857    -0.84800
O1631       O  0.95561374  0.54935994  0.55777532    -0.79700
O1632       O  0.92734980  0.66584827  0.56904170    -0.81400
O1633       O  0.89314901  0.56481017  0.62161944    -0.84200
C1634       C  0.96963711  0.55620415  0.52764887     0.96600
C1635       C  0.51307534  0.61477460  0.55448494     1.04000
O1636       O  0.94474598  0.60272861  0.59292956    -1.13200
O1637       O  0.94099972  0.60231241  0.67373305    -0.75600
O1638       O  0.99144307  0.59072978  0.65024821    -0.79100
O1639       O  0.97047835  0.58481580  0.51730404    -0.79800
C1640       C  0.97313107  0.59957246  0.67721677     0.95500
O1641       O  0.94138070  0.54202578  0.63336481    -0.77700
O1642       O  0.92079217  0.65559479  0.63004571    -0.82900
C1643       C  0.87571728  0.61594789  0.54616266     0.98100
C1644       C  0.91972442  0.67431483  0.60259340     1.04000
O1645       O  0.90283930  0.60977346  0.52953731    -0.78600
C1646       C  0.91029602  0.54037652  0.62596340     1.02300
Fe1647     Fe  0.53921396  0.93658316  0.39328570     1.65800
Fe1648     Fe  0.60399936  0.89299181  0.36977905     1.73200
Fe1649     Fe  0.56507129  0.88205154  0.45191218     1.54400
O1650       O  0.54466632  0.92230079  0.47943863    -0.82300
O1651       O  0.58862867  0.84821719  0.36849540    -0.80600
O1652       O  0.55893606  0.95769497  0.43829845    -0.84800
O1653       O  0.99890236  0.92053640  0.42881788    -0.79700
O1654       O  0.61144010  0.89581814  0.46705190    -0.81400
O1655       O  0.57115243  0.90125527  0.32238528    -0.84200
C1656       C  0.99407892  0.89312327  0.44215239     0.96600
C1657       C  0.54630846  0.95090292  0.46931981     1.04000
O1658       O  0.56895896  0.90288561  0.40415580    -1.13200
O1659       O  0.62172349  0.93732741  0.37224146    -0.75600
O1660       O  0.57420720  0.96234037  0.36236897    -0.79100
O1661       O  0.51812003  0.86825812  0.43766351    -0.79800
C1662       C  0.60571110  0.96238829  0.36791777     0.95500
O1663       O  0.52195756  0.91496498  0.34692271    -0.77700
O1664       O  0.63875498  0.88316366  0.41448874    -0.82900
C1665       C  0.59258189  0.83072156  0.39668217     0.98100
C1666       C  0.63793089  0.88778969  0.45022112     1.04000
O1667       O  0.58568000  0.84004146  0.43000544    -0.78600
C1668       C  0.53917697  0.90574133  0.31933190     1.02300
Fe1669     Fe  0.79052780  0.81918562  0.60413709     1.65800
Fe1670     Fe  0.85517840  0.86302245  0.62735711     1.73200
Fe1671     Fe  0.81924686  0.86995188  0.54314156     1.54400
O1672       O  0.79954676  0.82872328  0.51738771    -0.82300
O1673       O  0.83922079  0.90768303  0.62596405    -0.80600
O1674       O  0.80986743  0.79448706  0.56160850    -0.84800
O1675       O  0.75215076  0.83923174  0.56971165    -0.79700
O1676       O  0.86580286  0.85373121  0.53273094    -0.81400
O1677       O  0.82187162  0.85609608  0.67389812    -0.84200
C1678       C  0.74851645  0.86563604  0.55317901     0.96600
C1679       C  0.79960429  0.80051662  0.52920724     1.04000
O1680       O  0.82095916  0.85175999  0.59224850    -1.13200
O1681       O  0.87315602  0.81845647  0.62700162    -0.75600
O1682       O  0.82514509  0.79478418  0.63754237    -0.79100
O1683       O  0.77198301  0.88537471  0.55289834    -0.79800
C1684       C  0.85663708  0.79373985  0.63162974     0.95500
O1685       O  0.77298206  0.84396737  0.64784164    -0.77700
O1686       O  0.89049798  0.87252672  0.58390589    -0.82900
C1687       C  0.84355457  0.92405446  0.59686619     0.98100
C1688       C  0.89107504  0.86479331  0.54913244     1.04000
O1689       O  0.83889089  0.91310359  0.56368985    -0.78600
C1690       C  0.78972301  0.85338141  0.67563993     1.02300
Fe1691     Fe  0.72437011  0.68406457  0.39591487     1.65800
Fe1692     Fe  0.65793422  0.64288327  0.37331039     1.73200
Fe1693     Fe  0.69723806  0.63078254  0.45532156     1.54400
O1694       O  0.74350946  0.61539787  0.44096995    -0.82300
O1695       O  0.62373347  0.63293311  0.41793664    -0.80600
O1696       O  0.76344800  0.66201932  0.42677936    -0.84800
O1697       O  0.70632707  0.70590693  0.44115410    -0.79700
O1698       O  0.67601650  0.58927925  0.43301824    -0.81400
O1699       O  0.64142177  0.68759137  0.37715204    -0.84200
C1700       C  0.71946090  0.69903636  0.47191725     0.96600
C1701       C  0.76711718  0.63491240  0.44134591     1.04000
O1702       O  0.69366348  0.65152379  0.40741588    -1.13200
O1703       O  0.68967517  0.65162977  0.32530692    -0.75600
O1704       O  0.74006424  0.66182878  0.34932823    -0.79100
O1705       O  0.71942773  0.67055429  0.48279062    -0.79800
C1706       C  0.72160103  0.65540818  0.32150464     0.95500
O1707       O  0.68954070  0.71084575  0.36592262    -0.77700
O1708       O  0.67240549  0.59776137  0.37133082    -0.82900
C1709       C  0.62447170  0.63758765  0.45358895     0.98100
C1710       C  0.66948940  0.58000062  0.39954019     1.04000
O1711       O  0.65094877  0.64560057  0.47055464    -0.78600
C1712       C  0.65835657  0.71208335  0.37319563     1.02300
C1713       C  0.78716795  0.74405113  0.52432368    -0.26900
C1714       C  0.78246847  0.77443307  0.50973686    -0.15000
C1715       C  0.75635508  0.77931969  0.48372549     0.35600
C1716       C  0.73508123  0.75478311  0.47455061    -0.26400
C1717       C  0.73921791  0.72450653  0.48965356    -0.15600
C1718       C  0.76587516  0.71939840  0.51500436     0.36700
N1719       N  0.77202906  0.68974123  0.53200696    -0.89900
H1720       H  0.80697101  0.73950913  0.54448420     0.17800
H1721       H  0.71517993  0.75963485  0.45462871     0.17800
N1722       N  0.75018457  0.80889551  0.46647937    -0.88900
H1723       H  0.77713236  0.67375312  0.51089101     0.35200
H1724       H  0.75042649  0.68284925  0.54631179     0.40300
H1725       H  0.77203065  0.81613420  0.45286665     0.39900
H1726       H  0.74393670  0.82482915  0.48727394     0.34800
C1727       C  0.95172835  0.90977491  0.48910449    -0.26900
C1728       C  0.96455983  0.88624235  0.46585535    -0.15000
C1729       C  0.95357546  0.85528183  0.47114741     0.35600
C1730       C  0.93138493  0.84838993  0.50057322    -0.26400
C1731       C  0.91979418  0.87172904  0.52476238    -0.15600
C1732       C  0.92940895  0.90274887  0.51834468     0.36700
N1733       N  0.91520682  0.92731147  0.54030544    -0.89900
H1734       H  0.95967905  0.93363215  0.48522176     0.17800
H1735       H  0.92240473  0.82478961  0.50418085     0.17800
N1736       N  0.96493787  0.83099847  0.44652089    -0.88900
H1737       H  0.90285495  0.94269205  0.52215591     0.35200
H1738       H  0.93463856  0.93941407  0.55327791     0.40300
H1739       H  0.95596404  0.83611610  0.41960293     0.39900
H1740       H  0.95455681  0.80960623  0.45422510     0.34800
C1741       C  0.72424265  0.89020622  0.49577694    -0.26900
C1742       C  0.71909592  0.87196598  0.52839375    -0.15000
C1743       C  0.68733662  0.85831151  0.53386650     0.35600
C1744       C  0.66183670  0.86355085  0.50750770    -0.26400
C1745       C  0.66716897  0.88146542  0.47485700    -0.15600
C1746       C  0.69873487  0.89491739  0.46893603     0.36700
N1747       N  0.70462186  0.91372517  0.43621955    -0.89900
H1748       H  0.74862241  0.90035872  0.49065596     0.17800
H1749       H  0.63744855  0.85331749  0.51251273     0.17800
N1750       N  0.67991361  0.83953951  0.56607102    -0.88900
H1751       H  0.72933281  0.92169303  0.43585348     0.35200
H1752       H  0.68939535  0.93343816  0.43837619     0.40300
H1753       H  0.68567064  0.85221116  0.59023957     0.39900
H1754       H  0.69473100  0.81948812  0.56531408     0.34800
C1755       C  0.62919240  0.54707710  0.36480876    -0.26900
C1756       C  0.65426428  0.54916105  0.39260649    -0.15000
C1757       C  0.66290324  0.52241306  0.41320438     0.35600
C1758       C  0.64688087  0.49409282  0.40527423    -0.26400
C1759       C  0.62159509  0.49214091  0.37768255    -0.15600
C1760       C  0.61260298  0.51902724  0.35754776     0.36700
N1761       N  0.58693045  0.51793435  0.32946309    -0.89900
H1762       H  0.62181543  0.56759214  0.34904207     0.17800
H1763       H  0.65363863  0.97358512  0.41827682     0.17800
N1764       N  0.68809580  0.52377966  0.44178748    -0.88900
H1765       H  0.59732527  0.52515099  0.30396876     0.35200
H1766       H  0.56825052  0.53387965  0.33683650     0.40300
H1767       H  0.70701333  0.50794102  0.43487849     0.39900
H1768       H  0.67731968  0.51653463  0.46707352     0.34800
C1769       C  0.60150380  0.77477435  0.41352724    -0.26900
C1770       C  0.60880024  0.80009675  0.39022187    -0.15000
C1771       C  0.63343315  0.79656033  0.36182455     0.35600
C1772       C  0.64940915  0.76780882  0.35664147    -0.26400
C1773       C  0.64131078  0.74226464  0.37911064    -0.15600
C1774       C  0.61754791  0.74590365  0.40838026     0.36700
N1775       N  0.61043964  0.72048126  0.43343504    -0.89900
H1776       H  0.58334375  0.77754560  0.43585818     0.17800
H1777       H  0.66811383  0.76544087  0.33479400     0.17800
N1778       N  0.64317130  0.82240702  0.33883247    -0.88900
H1779       H  0.59238786  0.72691380  0.45320842     0.35200
H1780       H  0.63233929  0.71555783  0.44848123     0.40300
H1781       H  0.63913433  0.81643003  0.31075501     0.39900
H1782       H  0.66883947  0.82608701  0.34257832     0.34800
C1783       C  0.89053220  0.95479515  0.62184258    -0.26900
C1784       C  0.85957036  0.95459440  0.60296382    -0.15000
C1785       C  0.84404477  0.98306981  0.59414093     0.35600
C1786       C  0.86861673  0.50835067  0.59154860    -0.26400
C1787       C  0.89367110  0.50996022  0.61940405    -0.15600
C1788       C  0.90647379  0.98271407  0.63152661     0.36700
N1789       N  0.93835026  0.98164500  0.64998306    -0.89900
H1790       H  0.90258576  0.93293583  0.62904576     0.17800
H1791       H  0.86217775  0.52893455  0.57570941     0.17800
N1792       N  0.81231220  0.98422579  0.57541929    -0.88900
H1793       H  0.95507697  0.96966400  0.63263701     0.35200
H1794       H  0.93567949  0.96891427  0.67485220     0.40300
H1795       H  0.79493811  0.97197278  0.59162416     0.39900
H1796       H  0.83396571  0.46565626  0.53306620     0.34800
C1797       C  0.87930911  0.70776093  0.63679798    -0.26900
C1798       C  0.90572213  0.70569719  0.61064151    -0.15000
C1799       C  0.91723885  0.73307295  0.59323640     0.35600
C1800       C  0.90158759  0.76170001  0.60173891    -0.26400
C1801       C  0.87442986  0.76350669  0.62707538    -0.15600
C1802       C  0.86354062  0.73616969  0.64488209     0.36700
N1803       N  0.83658634  0.73709720  0.67134803    -0.89900
H1804       H  0.87015312  0.68692388  0.65053238     0.17800
H1805       H  0.91005944  0.78261121  0.58763601     0.17800
N1806       N  0.94470483  0.73177834  0.56724778    -0.88900
H1807       H  0.84544087  0.72839701  0.69695915     0.35200
H1808       H  0.81771758  0.72225928  0.66180377     0.40300
H1809       H  0.96591239  0.72447055  0.58215897     0.39900
H1810       H  0.95004172  0.75397177  0.55681098     0.34800
C1811       C  0.98873302  0.50106838  0.52804423    -0.26900
C1812       C  0.99000190  0.53081695  0.51071762    -0.15000
C1813       C  0.50913960  0.53065235  0.48671940     0.35600
C1814       C  0.53105780  0.50640036  0.47737053    -0.26400
C1815       C  0.52813473  0.97662127  0.48830293    -0.15600
C1816       C  0.00785466  0.97522574  0.52073750     0.36700
N1817       N  0.00865986  0.94634258  0.54118588    -0.89900
H1818       H  0.97096370  0.49658998  0.55035373     0.17800
H1819       H  0.55037657  0.51126987  0.45683898     0.17800
N1820       N  0.51374009  0.56078146  0.47028368    -0.88900
H1821       H  0.99149831  0.94674093  0.56330798     0.35200
H1822       H  0.03229621  0.94443611  0.55364111     0.40300
H1823       H  0.51207406  0.55850303  0.44112242     0.39900
H1824       H  0.53795650  0.56826575  0.47671590     0.34800
C1825       C  0.79210270  0.60774695  0.49640975    -0.26900
C1826       C  0.79655303  0.62794154  0.46546185    -0.15000
C1827       C  0.82672202  0.64466713  0.46233112     0.35600
C1828       C  0.85140866  0.64106591  0.49015378    -0.26400
C1829       C  0.84667664  0.62126702  0.52123521    -0.15600
C1830       C  0.81659458  0.60452962  0.52430742     0.36700
N1831       N  0.81052624  0.58366180  0.55487098    -0.89900
H1832       H  0.76882629  0.59515588  0.49985168     0.17800
H1833       H  0.87476892  0.65367319  0.48746456     0.17800
N1834       N  0.83213695  0.66532814  0.43114029    -0.88900
H1835       H  0.81208973  0.59616498  0.57991606     0.35200
H1836       H  0.82939461  0.56685360  0.55475353     0.40300
H1837       H  0.83273903  0.65181287  0.40678659     0.39900
H1838       H  0.85551209  0.67609115  0.43327551     0.34800
C1839       C  0.53829252  0.64122102  0.49882907    -0.26900
C1840       C  0.54256568  0.62117542  0.53003084    -0.15000
C1841       C  0.57341454  0.60568512  0.53444187     0.35600
C1842       C  0.59940776  0.61114434  0.50867784    -0.26400
C1843       C  0.59502044  0.63107721  0.47759319    -0.15600
C1844       C  0.56397189  0.64592396  0.47231572     0.36700
N1845       N  0.55892159  0.66637008  0.44082226    -0.89900
H1846       H  0.51441434  0.65269732  0.49441699     0.17800
H1847       H  0.62328375  0.59957036  0.51291146     0.17800
N1848       N  0.57860388  0.58457048  0.56507516    -0.88900
H1849       H  0.53498547  0.67627501  0.44167484     0.35200
H1850       H  0.55986786  0.65286753  0.41648743     0.40300
H1851       H  0.59904329  0.59244589  0.58072469     0.39900
H1852       H  0.58482133  0.56282121  0.55393731     0.34800
C1853       C  0.74189637  0.64401978  0.21677062    -0.26900
C1854       C  0.77459211  0.65639524  0.21459703    -0.15000
C1855       C  0.78954401  0.66751911  0.24760635     0.35600
C1856       C  0.77192435  0.66628883  0.28168005    -0.26400
C1857       C  0.73896618  0.65436578  0.28409846    -0.15600
C1858       C  0.72413316  0.64278956  0.25104586     0.36700
N1859       N  0.69119395  0.62974931  0.25197168    -0.89900
H1860       H  0.72984287  0.63551614  0.19153945     0.17800
H1861       H  0.78414627  0.67567202  0.30632650     0.17800
N1862       N  0.82199841  0.68161228  0.24643733    -0.88900
H1863       H  0.69271632  0.60683541  0.24231819     0.35200
H1864       H  0.67613067  0.64232863  0.23327241     0.40300
H1865       H  0.83763585  0.66950110  0.26498074     0.39900
H1866       H  0.81973681  0.70448487  0.25608728     0.34800
C1867       C  0.71886878  0.85942650  0.74819134    -0.26900
C1868       C  0.73688172  0.86417359  0.78128249    -0.15000
C1869       C  0.77180586  0.87002104  0.77885128     0.35600
C1870       C  0.78827952  0.86744950  0.74399207    -0.26400
C1871       C  0.77070949  0.85975342  0.71115401    -0.15600
C1872       C  0.73501386  0.85714536  0.71347879     0.36700
N1873       N  0.71403766  0.85147000  0.68154402    -0.89900
H1874       H  0.69206163  0.85562831  0.74941501     0.17800
H1875       H  0.81515650  0.87066450  0.74276831     0.17800
N1876       N  0.79058621  0.87803250  0.81191369    -0.88900
H1877       H  0.71933458  0.82948891  0.67055973     0.35200
H1878       H  0.71805894  0.86880855  0.66142130     0.40300
H1879       H  0.78148214  0.89940964  0.82152432     0.39900
H1880       H  0.81585923  0.88137135  0.80543662     0.33200
C1881       C  0.74441449  0.72658031  0.99036442    -0.26900
C1882       C  0.77639239  0.73233565  0.00489465    -0.15000
C1883       C  0.78724563  0.76349585  0.00879356     0.35600
C1884       C  0.76575087  0.78816497  0.99932056    -0.26400
C1885       C  0.73353530  0.78245754  0.98545887    -0.15600
C1886       C  0.72295959  0.75126046  0.98071243     0.36700
N1887       N  0.69025233  0.74458661  0.96618752    -0.89900
H1888       H  0.73524490  0.70291234  0.98849460     0.17800
H1889       H  0.77488537  0.81183264  0.00129348     0.17800
N1890       N  0.82013926  0.77012804  0.02279367    -0.88900
H1891       H  0.67751709  0.73109828  0.98600395     0.35200
H1892       H  0.69305045  0.73126561  0.94185004     0.40300
H1893       H  0.81767788  0.78370661  0.04696039     0.39900
H1894       H  0.83273598  0.78335150  0.00260345     0.34800
C1895       C  0.96651233  0.91045096  0.24584611    -0.26900
C1896       C  0.98525862  0.90492987  0.21337396    -0.15000
C1897       C  0.52328656  0.89760761  0.21375923     0.35600
C1898       C  0.53917800  0.89781749  0.24924733    -0.26400
C1899       C  0.52090067  0.90185974  0.28251833    -0.15600
C1900       C  0.98166606  0.91154145  0.28138125     0.36700
N1901       N  0.96017699  0.91812765  0.31257522    -0.89900
H1902       H  0.93995297  0.91540514  0.24353580     0.17800
H1903       H  0.56617080  0.89551419  0.25074839     0.17800
N1904       N  0.54303979  0.89290493  0.18049446    -0.88900
H1905       H  0.96710784  0.93931626  0.32457348     0.35200
H1906       H  0.96220190  0.90012756  0.33224711     0.40300
H1907       H  0.53531267  0.87198652  0.16835767     0.39900
H1908       H  0.56836348  0.89013698  0.18725910     0.34800
C1909       C  0.60238001  0.89221799  0.00924353    -0.26900
C1910       C  0.59496855  0.87864817  0.97420477    -0.15000
C1911       C  0.56181699  0.87024145  0.96589246     0.35600
C1912       C  0.53713611  0.87401925  0.99366554    -0.26400
C1913       C  0.54468607  0.88745589  0.02880441    -0.15600
C1914       C  0.57746534  0.89715512  0.03622319     0.36700
N1915       N  0.58557090  0.91182179  0.07109769    -0.89900
H1916       H  0.62780496  0.89923341  0.01568411     0.17800
H1917       H  0.51154646  0.86750839  0.98731512     0.17800
N1918       N  0.55345482  0.85738307  0.92989816    -0.88900
H1919       H  0.59547404  0.93378431  0.06513507     0.35200
H1920       H  0.60422274  0.89862583  0.08429742     0.40300
H1921       H  0.55680713  0.87489800  0.90983820     0.39900
H1922       H  0.52810638  0.85138853  0.92892206     0.34800
C1923       C  0.84985778  0.86520893  0.98861665    -0.26900
C1924       C  0.84660211  0.88803830  0.01657145    -0.15000
C1925       C  0.81757850  0.90644157  0.01785441     0.35600
C1926       C  0.79239092  0.90186466  0.99077315    -0.26400
C1927       C  0.79527073  0.87875698  0.96273611    -0.15600
C1928       C  0.82444777  0.86011632  0.96193259     0.36700
N1929       N  0.82824060  0.83609021  0.93425919    -0.89900
H1930       H  0.87252389  0.85128636  0.98761762     0.17800
H1931       H  0.76995411  0.91601970  0.99231044     0.17800
N1932       N  0.81425516  0.93027895  0.04584195    -0.88900
H1933       H  0.85085561  0.82415942  0.93808221     0.35200
H1934       H  0.82959707  0.84690318  0.90798004     0.40300
H1935       H  0.81296153  0.91931763  0.07203899     0.39900
H1936       H  0.79171412  0.94238544  0.04234986     0.34800
C1937       C  0.88254569  0.55450276  0.13400381    -0.26900
C1938       C  0.85698830  0.55635605  0.10665752    -0.15000
C1939       C  0.84844297  0.52953028  0.08637818     0.35600
C1940       C  0.86538408  0.50145341  0.09409708    -0.26400
C1941       C  0.89119447  0.49967040  0.12119280    -0.15600
C1942       C  0.90010220  0.52668808  0.14104542     0.36700
N1943       N  0.92635253  0.52580666  0.16870330    -0.89900
H1944       H  0.88962710  0.57522767  0.14931230     0.17800
H1945       H  0.85834212  0.98087668  0.07471907     0.17800
N1946       N  0.82257578  0.53078381  0.05831477    -0.88900
H1947       H  0.92805563  0.54715470  0.18257977     0.35200
H1948       H  0.94902109  0.52297723  0.15445839     0.40300
H1949       H  0.80005322  0.53594292  0.07192681     0.39900
H1950       H  0.81948361  0.50900691  0.04579102     0.34800
C1951       C  0.87294568  0.80578270  0.12323621    -0.26900
C1952       C  0.90336004  0.80602112  0.10333031    -0.15000
C1953       C  0.91758434  0.77769612  0.09180856     0.35600
C1954       C  0.90133722  0.74981348  0.10071118    -0.26400
C1955       C  0.87065487  0.74943096  0.12050504    -0.15600
C1956       C  0.85640527  0.77791967  0.13164149     0.36700
N1957       N  0.82531154  0.77880801  0.15161195    -0.89900
H1958       H  0.86172293  0.82754506  0.13213663     0.17800
H1959       H  0.91261826  0.72829472  0.09137758     0.17800
N1960       N  0.94871067  0.77651287  0.07190853    -0.88900
H1961       H  0.80835731  0.79218938  0.13599486     0.35200
H1962       H  0.82936899  0.79002636  0.17721906     0.40300
H1963       H  0.96696793  0.78759764  0.08811434     0.39900
H1964       H  0.94594168  0.78876157  0.04671443     0.34800
C1965       C  0.97145669  0.60787952  0.74689498    -0.26900
C1966       C  0.99032940  0.60541009  0.71392009    -0.15000
C1967       C  0.52403826  0.60494166  0.71505207     0.35600
C1968       C  0.54015418  0.60720515  0.75010507    -0.26400
C1969       C  0.52190989  0.61144154  0.78321025    -0.15600
C1970       C  0.98699307  0.61015681  0.78233300     0.36700
N1971       N  0.96652871  0.61264795  0.81541096    -0.89900
H1972       H  0.94437500  0.60726992  0.74519967     0.17800
H1973       H  0.56710646  0.60433559  0.75143902     0.17800
N1974       N  0.54426465  0.60029439  0.68232200    -0.88900
H1975       H  0.94107095  0.61212090  0.80851244     0.35200
H1976       H  0.97104155  0.63446610  0.82725627     0.40300
H1977       H  0.55815178  0.57984591  0.68602523     0.39900
H1978       H  0.56103788  0.61885134  0.68020129     0.34800
C1979       C  0.53802752  0.50565336  0.98151386    -0.26900
C1980       C  0.52911612  0.53639423  0.99133263    -0.15000
C1981       C  0.99840840  0.53904545  0.01014064     0.35600
C1982       C  0.97675383  0.51440058  0.01834598    -0.26400
C1983       C  0.98619924  0.98104761  0.00453423    -0.15600
C1984       C  0.51756432  0.98052879  0.98877500     0.36700
N1985       N  0.52840230  0.94990704  0.97877050    -0.89900
H1986       H  0.56067742  0.50131288  0.96555917     0.17800
H1987       H  0.95486711  0.51920990  0.03539762     0.17800
N1988       N  0.99035559  0.56974662  0.02280325    -0.88900
H1989       H  0.55193507  0.94624124  0.99091992     0.35200
H1990       H  0.53141599  0.94922143  0.94964112     0.40300
H1991       H  0.98882309  0.56922128  0.05209901     0.39900
H1992       H  0.96662707  0.57549016  0.01243377     0.34800
C1993       C  0.65013588  0.74284707  0.85760358    -0.26900
C1994       C  0.63896254  0.76997334  0.87515334    -0.15000
C1995       C  0.61283698  0.76787115  0.90207434     0.35600
C1996       C  0.59754921  0.73911159  0.90957360    -0.26400
C1997       C  0.60777574  0.71231688  0.89064830    -0.15600
C1998       C  0.63487877  0.71417287  0.86509809     0.36700
N1999       N  0.64771774  0.68669602  0.84745951    -0.89900
H2000       H  0.67077305  0.74384418  0.83790545     0.17800
H2001       H  0.57745804  0.73782332  0.92994923     0.17800
N2002       N  0.60231086  0.79472182  0.92271337    -0.88900
H2003       H  0.67297116  0.68434520  0.85480747     0.35200
H2004       H  0.64629574  0.68980939  0.81838421     0.40300
H2005       H  0.60592312  0.79023168  0.95130552     0.39900
H2006       H  0.57665658  0.79782836  0.91811753     0.34800
C2007       C  0.65888547  0.98652879  0.91347536    -0.26900
C2008       C  0.65100400  0.96082597  0.89121658    -0.15000
C2009       C  0.62594120  0.96406756  0.86314189     0.35600
C2010       C  0.61054652  0.99299855  0.85672705    -0.26400
C2011       C  0.62086973  0.52045448  0.87891176    -0.15600
C2012       C  0.64641586  0.51769433  0.90655614     0.36700
N2013       N  0.65594823  0.54416690  0.92867453    -0.89900
H2014       H  0.67731456  0.98399634  0.93563685     0.17800
H2015       H  0.59166848  0.99511244  0.83496600     0.17800
N2016       N  0.61527836  0.93773680  0.84165449    -0.88900
H2017       H  0.67507345  0.53825603  0.94748379     0.35200
H2018       H  0.63527232  0.55050174  0.94498471     0.40300
H2019       H  0.58960111  0.93465818  0.84604281     0.39900
H2020       H  0.61896635  0.94278449  0.81323207     0.34800
C2021       C  0.72132777  0.62141489  0.99901418    -0.26900
C2022       C  0.71517022  0.63904902  0.03169852    -0.15000
C2023       C  0.68390471  0.65375512  0.03608290     0.35600
C2024       C  0.65927652  0.64980084  0.00833588    -0.26400
C2025       C  0.66537190  0.63194043  0.97594062    -0.15600
C2026       C  0.69689218  0.61810693  0.97083714     0.36700
N2027       N  0.70363020  0.60005204  0.93780731    -0.89900
H2028       H  0.74570681  0.61084078  0.99487483     0.17800
H2029       H  0.63487030  0.66044077  0.01217494     0.17800
N2030       N  0.67715460  0.67232815  0.06872721    -0.88900
H2031       H  0.72778678  0.59063462  0.93892969     0.35200
H2032       H  0.70315878  0.61520555  0.91481062     0.40300
H2033       H  0.67779171  0.65755216  0.09208737     0.39900
H2034       H  0.65297874  0.68169440  0.06746698     0.34800
C2035       C  0.97338653  0.64615245  0.00158803    -0.26900
C2036       C  0.96799513  0.63083987  0.96712027    -0.15000
C2037       C  0.93576316  0.61986947  0.95851621     0.35600
C2038       C  0.90968715  0.62444648  0.98448716    -0.26400
C2039       C  0.91521433  0.63930742  0.01924460    -0.15600
C2040       C  0.94760931  0.65007060  0.02777340     0.36700
N2041       N  0.95497887  0.66552013  0.06234337    -0.89900
H2042       H  0.99824427  0.65418880  0.00895333     0.17800
H2043       H  0.88482613  0.61610245  0.97766987     0.17800
N2044       N  0.92964601  0.60418129  0.92359797    -0.88900
H2045       H  0.95011529  0.65022324  0.08450843     0.35200
H2046       H  0.93910039  0.68475959  0.06469120     0.40300
H2047       H  0.93379619  0.62017066  0.90192016     0.39900
H2048       H  0.90456675  0.59745110  0.92164625     0.34800
loop_ 
_geom_bond_atom_site_label_1 
_geom_bond_atom_site_label_2 
_geom_bond_distance 
_geom_bond_site_symmetry_2 
_ccdc_geom_bond_type 
Fe1          O17   2.092       .  S
Fe1           O7   2.004       .  S
Fe1          O14   2.015       .  S
Fe1        O1030   2.133       .  S
Fe1          O12   1.906       .  S
Fe2           O5   2.144       .  S
Fe2           O9   2.035       .  S
Fe2          O13   2.155       .  S
Fe2          O18   2.032       .  S
Fe2          O12   1.907       .  S
Fe3          O21   2.014       .  S
Fe3           O8   2.134       .  S
Fe3          O15   2.150       .  S
Fe3           O4   2.022       .  S
Fe3          O12   1.920       .  S
O4         C1035   1.264   1_455  A
O5           C19   1.288       .  A
O6        Fe1025   2.135       .  S
O6           C11   1.284       .  A
O7           C10   1.248       .  A
O8           C20   1.284       .  A
O9           C22   1.260       .  A
C10          O15   1.282       .  A
C10         C444   1.478       .  S
C11        O1028   1.263       .  A
C11         C500   1.488       .  S
O13          C16   1.293       .  A
O14          C16   1.265       .  A
C16         C433   1.495       .  S
O17          C22   1.274       .  A
O18          C20   1.264       .  A
C19          O21   1.262       .  A
C19         C489   1.482       .  S
C20         C461   1.477       .  S
C22         C475   1.479       .  S
Fe23         O39   2.016       .  S
Fe23         O36   2.099       .  S
Fe23         O28   2.002       .  S
Fe23       O1053   2.136       .  S
Fe23         O34   1.910       .  S
Fe24         O27   2.020       .  S
Fe24         O31   2.147       .  S
Fe24         O35   2.033       .  S
Fe24         O40   2.137       .  S
Fe24         O34   1.910       .  S
Fe25         O43   2.135       .  S
Fe25         O30   2.016       .  S
Fe25         O37   2.021       .  S
Fe25         O26   2.152       .  S
Fe25         O34   1.924       .  S
O26          C33   1.281       .  A
O27          C41   1.263       .  A
O28          C33   1.248       .  A
O29       Fe1047   2.137   1_455  S
O29          C32   1.284       .  A
O30          C42   1.262       .  A
O31          C44   1.292       .  A
C32        O1061   1.264   1_455  A
C32         C377   1.486       .  S
C33         C447   1.479       .  S
O35          C38   1.260       .  A
O36          C38   1.274       .  A
O37        C1056   1.264       .  A
C38         C917   1.482       .  S
O39          C44   1.265       .  A
O40          C42   1.285       .  A
C41          O43   1.284       .  A
C41         C416   1.473       .  S
C42         C388   1.475       .  S
C44         C360   1.499       .  S
Fe45         O61   2.023       .  S
Fe45         O51   2.122       .  S
Fe45         O58   2.094       .  S
Fe45         O50   2.005       .  S
Fe45         O56   1.916       .  S
Fe46         O49   2.024       .  S
Fe46         O53   2.140       .  S
Fe46         O57   2.038       .  S
Fe46         O62   2.138       .  S
Fe46         O56   1.915       .  S
Fe47         O65   2.126       .  S
Fe47         O52   2.018       .  S
Fe47         O59   2.028       .  S
Fe47         O48   2.143       .  S
Fe47         O56   1.927       .  S
O48          C55   1.282       .  A
O49          C63   1.262       .  A
O50          C55   1.253       .  A
O51          C54   1.280       .  A
O52          C64   1.264       .  A
O53          C66   1.289       .  A
C54          O59   1.263       .  A
C54         C391   1.483       .  S
C55         C349   1.463       .  S
O57          C60   1.262       .  A
O58          C60   1.274       .  A
C60         C458   1.478       .  S
O61          C66   1.266       .  A
O62          C64   1.286       .  A
C63          O65   1.283       .  A
C63         C472   1.482       .  S
C64         C374   1.480       .  S
C66         C332   1.495       .  S
Fe67         O83   2.096       .  S
Fe67         O73   2.006       .  S
Fe67         O80   2.020       .  S
Fe67         O72   2.133       .  S
Fe67         O78   1.914       .  S
Fe68         O71   2.144       .  S
Fe68         O75   2.035       .  S
Fe68         O79   2.149       .  S
Fe68         O84   2.025       .  S
Fe68         O78   1.910       .  S
Fe69         O87   2.014       .  S
Fe69         O74   2.133       .  S
Fe69         O81   2.146       .  S
Fe69         O70   2.022       .  S
Fe69         O78   1.920       .  S
O70          C77   1.262       .  A
O71          C85   1.287       .  A
O72          C77   1.282       .  A
O73          C76   1.250       .  A
O74          C86   1.285       .  A
O75          C88   1.261       .  A
C76          O81   1.282       .  A
C76         C346   1.464       .  S
C77         C486   1.478       .  S
O79          C82   1.291       .  A
O80          C82   1.266       .  A
C82         C318   1.497       .  S
O83          C88   1.274       .  A
O84          C86   1.264       .  A
C85          O87   1.262       .  A
C85         C503   1.480       .  S
C86         C402   1.488       .  S
C88         C419   1.492       .  S
Fe89        O105   2.098       .  S
Fe89         O95   2.006       .  S
Fe89        O102   2.027       .  S
Fe89       O1118   2.136       .  S
Fe89        O100   1.910       .  S
Fe90         O93   2.134       .  S
Fe90         O97   2.048       .  S
Fe90        O101   2.145       .  S
Fe90        O106   2.021       .  S
Fe90        O100   1.908       .  S
Fe91        O109   2.025       .  S
Fe91         O96   2.147       .  S
Fe91        O103   2.151       .  S
Fe91       O1116   2.030       .  S
Fe91        O100   1.925       .  S
O92       Fe1115   2.030       .  S
O92          C99   1.266   1_655  A
O93         C107   1.284       .  A
O94       Fe1113   2.131   1_455  S
O94          C99   1.282       .  A
O95          C98   1.249       .  A
O96         C108   1.287       .  A
O97         C110   1.263       .  A
C98         O103   1.283       .  A
C98         C276   1.485       .  S
C99         C304   1.483       .  S
O101        C104   1.291       .  A
O102        C104   1.266       .  A
C104        C430   1.500       .  S
O105        C110   1.275       .  A
O106        C108   1.264       .  A
C107        O109   1.263       .  A
C107        C293   1.472       .  S
C108        C262   1.490       .  S
C110        C251   1.494       .  S
Fe111       O127   2.027       .  S
Fe111       O124   2.104       .  S
Fe111       O116   2.002       .  S
Fe111      O1141   2.149       .  S
Fe111       O122   1.906       .  S
Fe112       O115   2.022       .  S
Fe112       O119   2.144       .  S
Fe112       O123   2.042       .  S
Fe112       O128   2.133       .  S
Fe112       O122   1.908       .  S
Fe113       O131   2.133       .  S
Fe113       O118   2.020       .  S
Fe113       O125   2.026       .  S
Fe113       O114   2.153       .  S
Fe113       O122   1.917       .  S
O114        C121   1.285       .  A
O115        C129   1.264       .  A
O116        C121   1.249       .  A
O117      Fe1135   2.124       .  S
O117        C120   1.282       .  A
O118        C130   1.262       .  A
O119        C132   1.290       .  A
C120       O1149   1.265       .  A
C120        C192   1.484       .  S
C121        C279   1.486       .  S
O123        C126   1.263       .  A
O124        C126   1.277       .  A
O125       C1144   1.261   1_455  A
C126        C735   1.488       .  S
O127        C132   1.266       .  A
O128        C130   1.283       .  A
C129        O131   1.284       .  A
C129        C234   1.475       .  S
C130        C209   1.469       .  S
C132        C363   1.500       .  S
Fe133       O149   2.019       .  S
Fe133       O139   2.133       .  S
Fe133       O146   2.091       .  S
Fe133       O138   2.006       .  S
Fe133       O144   1.903       .  S
Fe134       O137   2.021       .  S
Fe134       O141   2.145       .  S
Fe134       O145   2.045       .  S
Fe134       O150   2.128       .  S
Fe134       O144   1.908       .  S
Fe135       O153   2.149       .  S
Fe135       O140   2.021       .  S
Fe135       O147   2.030       .  S
Fe135       O136   2.155       .  S
Fe135       O144   1.917       .  S
O136        C143   1.282       .  A
O137        C151   1.265       .  A
O138        C143   1.248       .  A
O139        C142   1.283       .  A
O140        C152   1.261       .  A
O141        C154   1.291       .  A
C142        O147   1.267       .  A
C142        C206   1.496       .  S
C143        C178   1.491       .  S
O145        C148   1.261       .  A
O146        C148   1.273       .  A
C148        C265   1.481       .  S
O149        C154   1.264       .  A
O150        C152   1.282       .  A
C151        O153   1.288       .  A
C151        C248   1.491       .  S
C152        C195   1.467       .  S
C154        C335   1.502       .  S
Fe155       O171   2.082       .  S
Fe155       O161   2.007       .  S
Fe155       O168   2.012       .  S
Fe155       O160   2.131       .  S
Fe155       O166   1.906       .  S
Fe156       O159   2.142       .  S
Fe156       O163   2.046       .  S
Fe156       O167   2.155       .  S
Fe156       O172   2.025       .  S
Fe156       O166   1.906       .  S
Fe157       O175   2.018       .  S
Fe157       O162   2.134       .  S
Fe157       O169   2.158       .  S
Fe157       O158   2.031       .  S
Fe157       O166   1.923       .  S
O158        C165   1.265       .  A
O159        C173   1.287       .  A
O160        C165   1.281       .  A
O161        C164   1.248       .  A
O162        C174   1.285       .  A
O163        C176   1.261       .  A
C164        O169   1.283       .  A
C164        C181   1.491       .  S
C165        C290   1.493       .  S
O167        C170   1.293       .  A
O168        C170   1.267       .  A
C170        C321   1.500       .  S
O171        C176   1.271       .  A
O172        C174   1.264       .  A
C173        O175   1.265       .  A
C173        C307   1.483       .  S
C174        C220   1.490       .  S
C176        C237   1.485       .  S
C177        C178   1.420       .  A
C177        C182   1.398       .  A
C177        H184   1.084       .  S
C178        C179   1.408       .  A
C179        C180   1.397       .  A
C179        N186   1.433       .  S
C180        C181   1.420       .  A
C180        H185   1.084       .  S
C181        C182   1.407       .  A
C182        N183   1.433       .  S
N183        H187   1.044       .  S
N183        H188   1.045       .  S
N186        H189   1.046       .  S
N186        H190   1.044       .  S
C191        C192   1.406       .  A
C191        C196   1.405       .  A
C191        H198   1.083       .  S
C192        C193   1.415       .  A
C193        C194   1.405       .  A
C193        N200   1.438       .  S
C194        C195   1.401       .  A
C194        H199   1.084       .  S
C195        C196   1.408       .  A
C196        N197   1.438       .  S
N197        H201   1.046       .  S
N197        H202   1.045       .  S
N200        H203   1.046       .  S
N200        H204   1.046       .  S
C205        C206   1.413       .  A
C205        C210   1.406       .  A
C205        H212   1.083       .  S
C206        C207   1.421       .  A
C207        C208   1.401       .  A
C207        N214   1.432       .  S
C208        C209   1.402       .  A
C208        H213   1.085       .  S
C209        C210   1.404       .  A
C210        N211   1.437       .  S
N211        H215   1.045       .  S
N211        H216   1.046       .  S
N214        H217   1.045       .  S
N214        H218   1.042       .  S
C219        C220   1.416       .  A
C219        C224   1.406       .  A
C219        H226   1.083       .  S
C220        C221   1.408       .  A
C221        C222   1.405   1_545  A
C221        N228   1.432       .  S
C222        C223   1.407       .  A
C222        H739   1.084       .  S
C223        C638   1.474       .  S
C223        C224   1.402   1_565  A
C224        N225   1.438       .  S
N225        H229   1.046   1_545  S
N225        H230   1.045       .  S
H227        C734   1.082       .  S
N228        H231   1.046       .  S
N228        H232   1.046       .  S
C233        C234   1.397       .  A
C233        C238   1.410       .  A
C233        H240   1.084       .  S
C234        C235   1.412       .  A
C235        C236   1.398       .  A
C235        N242   1.434       .  S
C236        C237   1.399       .  A
C236        H241   1.084       .  S
C237        C238   1.423       .  A
C238        N239   1.438       .  S
N239        H243   1.046       .  S
N239        H244   1.046       .  S
N242        H245   1.045       .  S
N242        H246   1.046       .  S
C247        C248   1.415       .  A
C247        C252   1.407       .  A
C247        H254   1.083       .  S
C248        C249   1.411       .  A
C249        C762   1.403       .  A
C249        N256   1.432       .  S
C250        C251   1.414       .  A
C250        C761   1.406   1_545  A
C250        H255   1.081       .  S
C251        C764   1.407   1_545  A
C252        C763   1.404       .  A
C252        N253   1.437       .  S
N253        H257   1.046       .  S
N253        H258   1.046       .  S
N256        H259   1.045       .  S
N256        H772   1.045       .  S
H260        N768   1.045       .  S
C261        C262   1.413       .  A
C261        C266   1.401       .  A
C261        H268   1.084       .  S
C262        C263   1.409       .  A
C263        C264   1.413       .  A
C263        N270   1.437       .  S
C264        C265   1.412       .  A
C264        H269   1.084       .  S
C265        C266   1.400       .  A
C266        N267   1.432       .  S
N267        H271   1.046       .  S
N267        H272   1.045       .  S
N270        H273   1.046       .  S
N270        H274   1.046       .  S
C275        C276   1.418   1_565  A
C275        C792   1.406       .  A
C275        H282   1.083       .  S
C276       C1301   1.403       .  A
C277        C278   1.399       .  A
C277       C1300   1.402   1_455  A
C277        N284   1.432       .  S
C278        C791   1.416   1_545  A
C278        H283   1.084       .  S
C279        C790   1.418       .  A
C279       C1304   1.402       .  A
C280        C787   1.406       .  A
C280       C1303   1.405       .  A
C280        N281   1.437       .  S
N281        H285   1.045       .  S
N281        H286   1.046       .  S
N284        H287   1.046       .  S
N284        H288   1.045       .  S
C289        C290   1.410       .  A
C289        C294   1.400       .  A
C289        H296   1.084       .  S
C290        C291   1.417       .  A
C291        C292   1.409       .  A
C291        N298   1.437       .  S
C292        C293   1.403       .  A
C292        H297   1.084       .  S
C293        C294   1.413       .  A
C294        N295   1.438       .  S
N295        H299   1.046       .  S
N295        H300   1.041       .  S
N298        H301   1.045       .  S
N298        H302   1.046       .  S
C303        C304   1.412       .  A
C303        C308   1.410       .  A
C303        H310   1.083       .  S
C304        C305   1.403       .  A
C305        C306   1.403       .  A
C305        N312   1.432       .  S
C306        C307   1.411       .  A
C306        H311   1.084       .  S
C307        C308   1.406       .  A
C308        N309   1.436       .  S
N309        H313   1.045       .  S
N309        H314   1.046       .  S
N312        H315   1.045       .  S
N312        H316   1.046       .  S
C317        C318   1.415       .  A
C317        C322   1.408       .  A
C317        H324   1.084       .  S
C318        C319   1.409       .  A
C319        C320   1.408       .  A
C319        N326   1.438       .  S
C320        C321   1.416       .  A
C320        H325   1.083       .  S
C321        C322   1.407       .  A
C322        N323   1.432       .  S
N323        H327   1.045       .  S
N323        H328   1.046       .  S
N326        H329   1.045       .  S
N326        H330   1.046       .  S
C331        C332   1.398       .  A
C331        C336   1.401       .  A
C331        H338   1.084       .  S
C332        C333   1.422       .  A
C333        C334   1.409       .  A
C333        N340   1.439       .  S
C334        C335   1.403       .  A
C334        H339   1.083       .  S
C335        C336   1.431       .  A
C336        N337   1.433       .  S
N337        H341   1.045       .  S
N337        H342   1.046       .  S
N340        H343   1.046       .  S
N340        H344   1.046       .  S
C345        C346   1.401       .  A
C345        C350   1.405   1_554  A
C345        H352   1.084       .  S
C346        C347   1.411       .  A
C347        C348   1.402   1_554  A
C347        N354   1.433       .  S
C348        C349   1.401       .  A
C348        H353   1.084       .  S
C349        C350   1.412       .  A
C350        N351   1.438       .  S
N351        H355   1.046   1_556  S
N351        H356   1.045       .  S
N354        H357   1.046       .  S
N354        H358   1.046   1_554  S
C359        C360   1.399       .  A
C359        C364   1.401       .  A
C359        H366   1.084       .  S
C360       C1385   1.426       .  A
C361        C362   1.406       .  A
C361       C1384   1.421   1_455  A
C361        N368   1.433       .  S
C362        C363   1.402       .  A
C362        H367   1.084       .  S
C363       C1388   1.429   1_455  A
C364       C1387   1.429       .  A
C364        N365   1.433       .  S
N365        H369   1.045       .  S
N365        H370   1.045       .  S
N368        H371   1.046       .  S
N368        H372   1.045       .  S
C373        C374   1.410   1_554  A
C373        C378   1.403       .  A
C373        H380   1.084       .  S
C374        C375   1.405       .  A
C375        C376   1.409       .  A
C375        N382   1.437       .  S
C376        C377   1.414   1_556  A
C376        H381   1.083       .  S
C377        C378   1.404       .  A
C378        N379   1.432       .  S
N379        H383   1.046       .  S
N379        H384   1.046       .  S
N382        H385   1.045       .  S
N382        H386   1.045       .  S
C387        C388   1.408   1_556  A
C387        C392   1.404       .  A
C387        H394   1.084       .  S
C388        C389   1.403       .  A
C389        C390   1.408   1_554  A
C389        N396   1.437       .  S
C390        C391   1.414       .  A
C390        H395   1.083   1_556  S
C391        C392   1.407       .  A
C392        N393   1.438       .  S
N393        H397   1.046       .  S
N393        H398   1.046       .  S
N396        H399   1.045       .  S
N396        H400   1.046       .  S
C401        C402   1.413       .  A
C401        C406   1.402       .  A
C401        H408   1.084       .  S
C402        C403   1.409       .  A
C403        C404   1.410       .  A
C403        N410   1.437       .  S
C404        C405   1.411   1_545  A
C404        H921   1.084   1_545  S
C405        C550   1.481       .  S
C405        C406   1.401   1_565  A
C406        N407   1.432       .  S
N407        H411   1.046       .  S
N407        H412   1.045       .  S
H409        C916   1.084       .  S
N410        H413   1.046       .  S
N410        H414   1.046       .  S
C415        C416   1.406       .  A
C415        C420   1.404       .  A
C415        H422   1.084       .  S
C416        C417   1.403       .  A
C417        C418   1.401       .  A
C417        N424   1.432       .  S
C418        C419   1.415       .  A
C418        H423   1.082       .  S
C419        C420   1.411       .  A
C420        N421   1.432       .  S
N421        H425   1.046       .  S
N421        H426   1.045       .  S
N424        H427   1.046       .  S
N424        H428   1.045       .  S
C429        C430   1.399       .  A
C429        C434   1.405       .  A
C429        H436   1.084       .  S
C430       C1455   1.423       .  A
C431        C432   1.407       .  A
C431       C1454   1.427   1_455  A
C431        N438   1.433       .  S
C432        C433   1.398       .  A
C432        H437   1.084       .  S
C433       C1458   1.421   1_455  A
C434       C1457   1.425       .  A
C434        N435   1.433       .  S
N435        H439   1.046       .  S
N435        H440   1.045       .  S
N438        H441   1.046       .  S
N438        H442   1.045       .  S
C443        C444   1.413       .  A
C443        C960   1.402   1_545  A
C443        H450   1.084   1_545  S
C444       C1469   1.404   1_456  A
C445        C446   1.403       .  A
C445       C1468   1.403   1_554  A
C445        N452   1.431       .  S
C446        C959   1.414   1_545  A
C446        H451   1.084       .  S
C447        C958   1.413       .  A
C447       C1472   1.405   1_554  A
C448        C955   1.399       .  A
C448       C1471   1.403   1_456  A
C448        N449   1.432       .  S
N449        H453   1.045       .  S
N449        H454   1.046       .  S
N452        H455   1.046       .  S
N452        H456   1.044       .  S
C457        C458   1.403       .  A
C457        C462   1.407       .  A
C457        H464   1.084       .  S
C458        C459   1.409       .  A
C459        C460   1.405       .  A
C459        N466   1.432       .  S
C460        C461   1.403       .  A
C460        H465   1.084       .  S
C461        C462   1.413       .  A
C462        N463   1.437       .  S
N463        H467   1.045       .  S
N463        H468   1.046       .  S
N466        H469   1.045       .  S
N466        H470   1.046       .  S
C471        C472   1.397       .  A
C471        C988   1.406       .  A
C471        H478   1.084       .  S
C472        C473   1.421       .  A
C473        C474   1.406       .  A
C473        N480   1.439       .  S
C474        C987   1.398       .  A
C474        H479   1.084       .  S
C475        C476   1.420       .  A
C475        C986   1.396   1_545  A
C476        C983   1.408   1_545  A
C476        N477   1.439       .  S
N477        H481   1.046       .  S
N477        H482   1.045       .  S
N480        H483   1.046       .  S
N480        H484   1.046       .  S
C485        C486   1.411   1_556  A
C485        C490   1.407       .  A
C485        H492   1.084       .  S
C486        C487   1.402       .  A
C487        C488   1.406       .  A
C487        N494   1.437       .  S
C488        C489   1.413   1_554  A
C488        H493   1.084       .  S
C489        C490   1.404       .  A
C490        N491   1.437       .  S
N491        H495   1.045       .  S
N491        H496   1.045       .  S
N494        H497   1.046       .  S
N494        H498   1.045       .  S
C499        C500   1.414       .  A
C499        C504   1.403   1_556  A
C499        H506   1.084   1_556  S
C500        C501   1.408       .  A
C501        C502   1.406       .  A
C501        N508   1.437       .  S
C502        C503   1.409   1_556  A
C502        H507   1.084       .  S
C503        C504   1.406       .  A
C504        N505   1.432       .  S
N505        H509   1.045       .  S
N505        H510   1.045       .  S
N508        H511   1.046       .  S
N508        H512   1.046       .  S
Fe513       O529   2.092       .  S
Fe513       O519   2.004       .  S
Fe513       O526   2.017       .  S
Fe513      O1542   2.137       .  S
Fe513       O524   1.905       .  S
Fe514       O517   2.130       .  S
Fe514       O521   2.041       .  S
Fe514       O525   2.146       .  S
Fe514       O530   2.037       .  S
Fe514       O524   1.912       .  S
Fe515       O533   2.015       .  S
Fe515       O520   2.125       .  S
Fe515       O527   2.141       .  S
Fe515       O516   2.023       .  S
Fe515       O524   1.926       .  S
O516       C1547   1.265   1_455  A
O517        C531   1.283       .  A
O518      Fe1537   2.128       .  S
O518        C523   1.282       .  A
O519        C522   1.247       .  A
O520        C532   1.282       .  A
O521        C534   1.261       .  A
C522        O527   1.278       .  A
C522        C956   1.477       .  S
C523       O1540   1.264       .  A
C523       C1012   1.480       .  S
O525        C528   1.291       .  A
O526        C528   1.266       .  A
C528        C945   1.497       .  S
O529        C534   1.273       .  A
O530        C532   1.267       .  A
C531        O533   1.262       .  A
C531       C1001   1.469       .  S
C532        C973   1.471       .  S
C534        C987   1.483       .  S
Fe535       O551   2.022       .  S
Fe535      O1565   2.133       .  S
Fe535       O548   2.100       .  S
Fe535       O540   2.002       .  S
Fe535       O546   1.909       .  S
Fe536       O539   2.016       .  S
Fe536       O543   2.155       .  S
Fe536       O547   2.035       .  S
Fe536       O552   2.141       .  S
Fe536       O546   1.903       .  S
Fe537       O555   2.137       .  S
Fe537       O542   2.016       .  S
Fe537       O549   2.018       .  S
Fe537       O538   2.158       .  S
Fe537       O546   1.922       .  S
O538        C545   1.284       .  A
O539        C553   1.262       .  A
O540        C545   1.250       .  A
O541      Fe1559   2.135   1_455  S
O541        C544   1.283       .  A
O542        C554   1.262       .  A
O543        C556   1.293       .  A
C544       O1573   1.262   1_455  A
C544        C889   1.484       .  S
C545        C959   1.481       .  S
O547        C550   1.261       .  A
O548        C550   1.275       .  A
O549       C1568   1.261       .  A
O551        C556   1.265       .  A
O552        C554   1.286       .  A
C553        O555   1.284       .  A
C553        C928   1.481       .  S
C554        C900   1.473       .  S
C556        C872   1.502       .  S
Fe557       O573   2.017       .  S
Fe557       O563   2.131       .  S
Fe557       O570   2.094       .  S
Fe557       O562   2.005       .  S
Fe557       O568   1.909       .  S
Fe558       O561   2.021       .  S
Fe558       O565   2.152       .  S
Fe558       O569   2.035       .  S
Fe558       O574   2.146       .  S
Fe558       O568   1.912       .  S
Fe559       O577   2.129       .  S
Fe559       O564   2.015       .  S
Fe559       O571   2.026       .  S
Fe559       O560   2.148       .  S
Fe559       O568   1.923       .  S
O560        C567   1.282       .  A
O561        C575   1.262       .  A
O562        C567   1.251       .  A
O563        C566   1.283       .  A
O564        C576   1.263       .  A
O565        C578   1.291       .  A
C566        O571   1.263       .  A
C566        C903   1.490       .  S
C567        C861   1.467       .  S
O569        C572   1.261       .  A
O570        C572   1.275       .  A
C572        C970   1.482       .  S
O573        C578   1.265       .  A
O574        C576   1.288       .  A
C575        O577   1.283       .  A
C575        C984   1.483       .  S
C576        C886   1.481       .  S
C578        C844   1.500       .  S
Fe579       O595   2.088       .  S
Fe579       O585   2.015       .  S
Fe579       O592   2.017       .  S
Fe579       O584   2.125       .  S
Fe579       O590   1.915       .  S
Fe580       O583   2.141       .  S
Fe580       O587   2.037       .  S
Fe580       O591   2.155       .  S
Fe580       O596   2.026       .  S
Fe580       O590   1.910       .  S
Fe581       O599   2.010       .  S
Fe581       O586   2.129       .  S
Fe581       O593   2.147       .  S
Fe581       O582   2.022       .  S
Fe581       O590   1.916       .  S
O582        C589   1.262       .  A
O583        C597   1.287       .  A
O584        C589   1.281       .  A
O585        C588   1.253       .  A
O586        C598   1.283       .  A
O587        C600   1.260       .  A
C588        O593   1.283       .  A
C588        C858   1.467       .  S
C589        C998   1.479       .  S
O591        C594   1.292       .  A
O592        C594   1.266       .  A
C594        C830   1.503       .  S
O595        C600   1.272       .  A
O596        C598   1.264       .  A
C597        O599   1.263       .  A
C597       C1015   1.478       .  S
C598        C914   1.485       .  S
C600        C931   1.478       .  S
Fe601       O617   2.096       .  S
Fe601       O607   2.004       .  S
Fe601       O614   2.020       .  S
Fe601      O1630   2.142       .  S
Fe601       O612   1.908       .  S
Fe602       O605   2.145       .  S
Fe602       O609   2.046       .  S
Fe602       O613   2.157       .  S
Fe602       O618   2.020       .  S
Fe602       O612   1.908       .  S
Fe603       O621   2.029       .  S
Fe603       O608   2.149       .  S
Fe603       O615   2.156       .  S
Fe603      O1628   2.029       .  S
Fe603       O612   1.922       .  S
O604      Fe1627   2.024       .  S
O604        C611   1.263   1_655  A
O605        C619   1.286       .  A
O606      Fe1625   2.131   1_455  S
O606        C611   1.282       .  A
O607        C610   1.247       .  A
O608        C620   1.288       .  A
O609        C622   1.262       .  A
C610        O615   1.283       .  A
C610        C788   1.487       .  S
C611        C816   1.482       .  S
O613        C616   1.293       .  A
O614        C616   1.266       .  A
C616        C942   1.505       .  S
O617        C622   1.274       .  A
O618        C620   1.264       .  A
C619        O621   1.263       .  A
C619        C805   1.479       .  S
C620        C774   1.491       .  S
C622        C763   1.484       .  S
Fe623       O639   2.024       .  S
Fe623      O1653   2.136   1_455  S
Fe623       O636   2.095       .  S
Fe623       O628   2.008       .  S
Fe623       O634   1.905       .  S
Fe624       O627   2.025       .  S
Fe624       O631   2.145       .  S
Fe624       O635   2.038       .  S
Fe624       O640   2.137       .  S
Fe624       O634   1.901       .  S
Fe625       O643   2.131       .  S
Fe625       O630   2.020       .  S
Fe625       O637   2.025       .  S
Fe625       O626   2.144       .  S
Fe625       O634   1.923       .  S
O626        C633   1.281       .  A
O627        C641   1.262       .  A
O628        C633   1.249       .  A
O629      Fe1647   2.138       .  S
O629        C632   1.284       .  A
O630        C642   1.263       .  A
O631        C644   1.291       .  A
C632       O1661   1.265       .  A
C632        C704   1.492       .  S
C633        C791   1.483       .  S
O635        C638   1.261       .  A
O636        C638   1.273       .  A
O637       C1656   1.264   1_455  A
O639        C644   1.265       .  A
O640        C642   1.285       .  A
C641        O643   1.283       .  A
C641        C746   1.484       .  S
C642        C721   1.468       .  S
C644        C875   1.504       .  S
Fe645       O661   2.017       .  S
Fe645       O651   2.131       .  S
Fe645       O658   2.091       .  S
Fe645       O650   2.006       .  S
Fe645       O656   1.906       .  S
Fe646       O649   2.022       .  S
Fe646       O653   2.157       .  S
Fe646       O657   2.047       .  S
Fe646       O662   2.139       .  S
Fe646       O656   1.907       .  S
Fe647       O665   2.149       .  S
Fe647       O652   2.025       .  S
Fe647       O659   2.032       .  S
Fe647       O648   2.155       .  S
Fe647       O656   1.922       .  S
O648        C655   1.282       .  A
O649        C663   1.265       .  A
O650        C655   1.246       .  A
O651        C654   1.283       .  A
O652        C664   1.262       .  A
O653        C666   1.294       .  A
C654        O659   1.268       .  A
C654        C718   1.496       .  S
C655        C690   1.491       .  S
O657        C660   1.261       .  A
O658        C660   1.272       .  A
C660        C777   1.480       .  S
O661        C666   1.264       .  A
O662        C664   1.285       .  A
C663        O665   1.288       .  A
C663        C760   1.484       .  S
C664        C707   1.473       .  S
C666        C847   1.506       .  S
Fe667       O683   2.094       .  S
Fe667       O673   2.005       .  S
Fe667       O680   2.020       .  S
Fe667       O672   2.141       .  S
Fe667       O678   1.908       .  S
Fe668       O671   2.133       .  S
Fe668       O675   2.038       .  S
Fe668       O679   2.151       .  S
Fe668       O684   2.025       .  S
Fe668       O678   1.909       .  S
Fe669       O687   2.014       .  S
Fe669       O674   2.143       .  S
Fe669       O681   2.162       .  S
Fe669       O670   2.032       .  S
Fe669       O678   1.924       .  S
O670        C677   1.265       .  A
O671        C685   1.285       .  A
O672        C677   1.283       .  A
O673        C676   1.247       .  A
O674        C686   1.287       .  A
O675        C688   1.259       .  A
C676        O681   1.283       .  A
C676        C693   1.490       .  S
C677        C802   1.499       .  S
O679        C682   1.293       .  A
O680        C682   1.269       .  A
C682        C833   1.492       .  S
O683        C688   1.272       .  A
O684        C686   1.265       .  A
C685        O687   1.263       .  A
C685        C819   1.475       .  S
C686        C732   1.491       .  S
C688        C749   1.478       .  S
C689        C690   1.421       .  A
C689        C694   1.399       .  A
C689        H696   1.083       .  S
C690        C691   1.407       .  A
C691        C692   1.396       .  A
C691        N698   1.432       .  S
C692        C693   1.420       .  A
C692        H697   1.083       .  S
C693        C694   1.406       .  A
C694        N695   1.432       .  S
N695        H699   1.043       .  S
N695        H700   1.046       .  S
N698        H701   1.046       .  S
N698        H702   1.044       .  S
C703        C704   1.408       .  A
C703        C708   1.406       .  A
C703        H710   1.083       .  S
C704        C705   1.419       .  A
C705        C706   1.409       .  A
C705        N712   1.438       .  S
C706        C707   1.401       .  A
C706        H711   1.084       .  S
C707        C708   1.407       .  A
C708        N709   1.433       .  S
N709        H713   1.045       .  S
N709        H714   1.044       .  S
N712        H715   1.046       .  S
N712        H716   1.046       .  S
C717        C718   1.415       .  A
C717        C722   1.404       .  A
C717        H724   1.083       .  S
C718        C719   1.421       .  A
C719        C720   1.401       .  A
C719        N726   1.432       .  S
C720        C721   1.402       .  A
C720        H725   1.085       .  S
C721        C722   1.400       .  A
C722        N723   1.432       .  S
N723        H727   1.045       .  S
N723        H728   1.046       .  S
N726        H729   1.046       .  S
N726        H730   1.044       .  S
C731        C732   1.413       .  A
C731        C736   1.405       .  A
C731        H738   1.084       .  S
C732        C733   1.408       .  A
C733        C734   1.412       .  A
C733        N740   1.437       .  S
C734        C735   1.412       .  A
C735        C736   1.403       .  A
C736        N737   1.432       .  S
N737        H741   1.046       .  S
N737        H742   1.045       .  S
N740        H743   1.046       .  S
N740        H744   1.045       .  S
C745        C746   1.400       .  A
C745        C750   1.407       .  A
C745        H752   1.084       .  S
C746        C747   1.423       .  A
C747        C748   1.404       .  A
C747        N754   1.439       .  S
C748        C749   1.395       .  A
C748        H753   1.084       .  S
C749        C750   1.418       .  A
C750        N751   1.438       .  S
N751        H755   1.046       .  S
N751        H756   1.045       .  S
N754        H757   1.045       .  S
N754        H758   1.046       .  S
C759        C760   1.409       .  A
C759        C764   1.405       .  A
C759        H766   1.084       .  S
C760        C761   1.407       .  A
C761        N768   1.432       .  S
C762        C763   1.410       .  A
C762        H767   1.081       .  S
C764        N765   1.432       .  S
N765        H769   1.045       .  S
N765        H770   1.046       .  S
N768        H771   1.045       .  S
C773        C774   1.414       .  A
C773        C778   1.401       .  A
C773        H780   1.084       .  S
C774        C775   1.409       .  A
C775        C776   1.412       .  A
C775        N782   1.437       .  S
C776        C777   1.410       .  A
C776        H781   1.084       .  S
C777        C778   1.400       .  A
C778        N779   1.432       .  S
N779        H783   1.046       .  S
N779        H784   1.045       .  S
N782        H785   1.046       .  S
N782        H786   1.046       .  S
C787        C788   1.418       .  A
C787        H794   1.084       .  S
C788       C1813   1.403       .  A
C789       C1812   1.403   1_455  A
C789        C790   1.403       .  A
C789        N796   1.432       .  S
C790        H795   1.084       .  S
C791       C1816   1.403       .  A
C792       C1815   1.405       .  A
C792        N793   1.438       .  S
N793        H797   1.045       .  S
N793        H798   1.045       .  S
N796        H799   1.046       .  S
N796        H800   1.046       .  S
C801        C802   1.411       .  A
C801        C806   1.401       .  A
C801        H808   1.084       .  S
C802        C803   1.419       .  A
C803        C804   1.412       .  A
C803        N810   1.437       .  S
C804        C805   1.403       .  A
C804        H809   1.084       .  S
C805        C806   1.410       .  A
C806        N807   1.432       .  S
N807        H811   1.045       .  S
N807        H812   1.045       .  S
N810        H813   1.045       .  S
N810        H814   1.046       .  S
C815        C816   1.413       .  A
C815        C820   1.408       .  A
C815        H822   1.083       .  S
C816        C817   1.403       .  A
C817        C818   1.401       .  A
C817        N824   1.432       .  S
C818        C819   1.408       .  A
C818        H823   1.084       .  S
C819        C820   1.405       .  A
C820        N821   1.437       .  S
N821        H825   1.046       .  S
N821        H826   1.045       .  S
N824        H827   1.046       .  S
N824        H828   1.045       .  S
C829        C830   1.417       .  A
C829        C834   1.408       .  A
C829        H836   1.083       .  S
C830        C831   1.411       .  A
C831        C832   1.411       .  A
C831        N838   1.437       .  S
C832        C833   1.412       .  A
C832        H837   1.084       .  S
C833        C834   1.407       .  A
C834        N835   1.438       .  S
N835        H839   1.045       .  S
N835        H840   1.046       .  S
N838        H841   1.046       .  S
N838        H842   1.045       .  S
C843        C844   1.399       .  A
C843        C848   1.404       .  A
C843        H850   1.084       .  S
C844        C845   1.424       .  A
C845        C846   1.410       .  A
C845        N852   1.439       .  S
C846        C847   1.402       .  A
C846        H851   1.083       .  S
C847        C848   1.433       .  A
C848        N849   1.433       .  S
N849        H853   1.045       .  S
N849        H854   1.045       .  S
N852        H855   1.045       .  S
N852        H856   1.046       .  S
C857        C858   1.402       .  A
C857        C862   1.405   1_554  A
C857        H864   1.083       .  S
C858        C859   1.409   1_554  A
C859        C860   1.403       .  A
C859        N866   1.433       .  S
C860        C861   1.403       .  A
C860        H865   1.083       .  S
C861        C862   1.414       .  A
C862        N863   1.439       .  S
N863        H867   1.046   1_556  S
N863        H868   1.044       .  S
N866        H869   1.045   1_556  S
N866        H870   1.046       .  S
C871        C872   1.398       .  A
C871        C876   1.403       .  A
C871        H878   1.084       .  S
C872       C1897   1.424       .  A
C873       C1896   1.421   1_455  A
C873        C874   1.409       .  A
C873        N880   1.438       .  S
C874        C875   1.404       .  A
C874        H879   1.083       .  S
C875       C1900   1.431   1_455  A
C876       C1899   1.433       .  A
C876        N877   1.433       .  S
N877        H881   1.045       .  S
N877        H882   1.046       .  S
N880        H883   1.045       .  S
N880        H884   1.046       .  S
C885        C886   1.411   1_554  A
C885        C890   1.404       .  A
C885        H892   1.084       .  S
C886        C887   1.405       .  A
C887        C888   1.409       .  A
C887        N894   1.437       .  S
C888        C889   1.414   1_556  A
C888        H893   1.083       .  S
C889        C890   1.403       .  A
C890        N891   1.432       .  S
N891        H895   1.045       .  S
N891        H896   1.046       .  S
N894        H897   1.045       .  S
N894        H898   1.046       .  S
C899        C900   1.406   1_556  A
C899        C904   1.406       .  A
C899        H906   1.084       .  S
C900        C901   1.402       .  A
C901        C902   1.408   1_554  A
C901        N908   1.437       .  S
C902        C903   1.415       .  A
C902        H907   1.083       .  S
C903        C904   1.410       .  A
C904        N905   1.438       .  S
N905        H909   1.045       .  S
N905        H910   1.046       .  S
N908        H911   1.045       .  S
N908        H912   1.046       .  S
C913        C914   1.412       .  A
C913        C918   1.403       .  A
C913        H920   1.084       .  S
C914        C915   1.407       .  A
C915        C916   1.408       .  A
C915        N922   1.437       .  S
C916        C917   1.411       .  A
C917        C918   1.402       .  A
C918        N919   1.432       .  S
N919        H923   1.045       .  S
N919        H924   1.046       .  S
N922        H925   1.046       .  S
N922        H926   1.046       .  S
C927        C928   1.411       .  A
C927        C932   1.400       .  A
C927        H934   1.084       .  S
C928        C929   1.409       .  A
C929        C930   1.402       .  A
C929        N936   1.432       .  S
C930        C931   1.411       .  A
C930        H935   1.082       .  S
C931        C932   1.402       .  A
C932        N933   1.432       .  S
N933        H937   1.045       .  S
N933        H938   1.046       .  S
N936        H939   1.045       .  S
N936        H940   1.045       .  S
C941        C942   1.403       .  A
C941        C946   1.410       .  A
C941        H948   1.083       .  S
C942       C1967   1.426       .  A
C943       C1966   1.423   1_455  A
C943        C944   1.405       .  A
C943        N950   1.433       .  S
C944        C945   1.400       .  A
C944        H949   1.084       .  S
C945       C1970   1.425   1_455  A
C946       C1969   1.421       .  A
C946        N947   1.433       .  S
N947        H951   1.046       .  S
N947        H952   1.046       .  S
N950        H953   1.046       .  S
N950        H954   1.046       .  S
C955        C956   1.413       .  A
C955        H962   1.084       .  S
C956       C1981   1.404   1_456  A
C957       C1980   1.403   1_554  A
C957        C958   1.400       .  A
C957        N964   1.431       .  S
C958        H963   1.084       .  S
C959       C1984   1.404   1_554  A
C960       C1983   1.404   1_456  A
C960        N961   1.431       .  S
N961        H965   1.044       .  S
N961        H966   1.046       .  S
N964        H967   1.046       .  S
N964        H968   1.044       .  S
C969        C970   1.402       .  A
C969        C974   1.401       .  A
C969        H976   1.084       .  S
C970        C971   1.416       .  A
C971        C972   1.406       .  A
C971        N978   1.432       .  S
C972        C973   1.400       .  A
C972        H977   1.084       .  S
C973        C974   1.409       .  A
C974        N975   1.431       .  S
N975        H979   1.045       .  S
N975        H980   1.045       .  S
N978        H981   1.046       .  S
N978        H982   1.045       .  S
C983        C984   1.399       .  A
C983        H990   1.084       .  S
C984        C985   1.419       .  A
C985        C986   1.400       .  A
C985        N992   1.433       .  S
C986        H991   1.084       .  S
C987        C988   1.420       .  A
C988        N989   1.438       .  S
N989        H993   1.046       .  S
N989        H994   1.046       .  S
N992        H995   1.045       .  S
N992        H996   1.046       .  S
C997        C998   1.413       .  A
C997       C1002   1.404   1_554  A
C997       H1004   1.084   1_554  S
C998        C999   1.406       .  A
C999       C1000   1.404       .  A
C999       N1006   1.437       .  S
C1000      C1001   1.408   1_554  A
C1000      H1005   1.084       .  S
C1001      C1002   1.401       .  A
C1002      N1003   1.436       .  S
N1003      H1007   1.046       .  S
N1003      H1008   1.045       .  S
N1006      H1009   1.045       .  S
N1006      H1010   1.046       .  S
C1011      C1012   1.412       .  A
C1011      C1016   1.400   1_556  A
C1011      H1018   1.084   1_556  S
C1012      C1013   1.406       .  A
C1013      C1014   1.405       .  A
C1013      N1020   1.437       .  S
C1014      C1015   1.411   1_556  A
C1014      H1019   1.084       .  S
C1015      C1016   1.406       .  A
C1016      N1017   1.432       .  S
N1017      H1021   1.045       .  S
N1017      H1022   1.044       .  S
N1020      H1023   1.046       .  S
N1020      H1024   1.045       .  S
Fe1025     O1041   2.098       .  S
Fe1025     O1031   1.998       .  S
Fe1025     O1038   2.019       .  S
Fe1025     O1036   1.906       .  S
Fe1026     O1029   2.138       .  S
Fe1026     O1033   2.040       .  S
Fe1026     O1037   2.157       .  S
Fe1026     O1042   2.025       .  S
Fe1026     O1036   1.912       .  S
Fe1027     O1045   2.016       .  S
Fe1027     O1032   2.138       .  S
Fe1027     O1039   2.156       .  S
Fe1027     O1028   2.026       .  S
Fe1027     O1036   1.923       .  S
O1029      C1043   1.285       .  A
O1030      C1035   1.284   1_455  A
O1031      C1034   1.249       .  A
O1032      C1044   1.286       .  A
O1033      C1046   1.262       .  A
C1034      O1039   1.284       .  A
C1034      C1468   1.479       .  S
C1035      C1524   1.477       .  S
O1037      C1040   1.292       .  A
O1038      C1040   1.265       .  A
C1040      C1457   1.504       .  S
O1041      C1046   1.275       .  A
O1042      C1044   1.265       .  A
C1043      O1045   1.262       .  A
C1043      C1513   1.474       .  S
C1044      C1485   1.488       .  S
C1046      C1499   1.485       .  S
Fe1047     O1063   2.022       .  S
Fe1047     O1060   2.097       .  S
Fe1047     O1052   2.003       .  S
Fe1047     O1058   1.908       .  S
Fe1048     O1051   2.019       .  S
Fe1048     O1055   2.143       .  S
Fe1048     O1059   2.038       .  S
Fe1048     O1064   2.133       .  S
Fe1048     O1058   1.910       .  S
Fe1049     O1067   2.130       .  S
Fe1049     O1054   2.013       .  S
Fe1049     O1061   2.024       .  S
Fe1049     O1050   2.141       .  S
Fe1049     O1058   1.921       .  S
O1050      C1057   1.281       .  A
O1051      C1065   1.264       .  A
O1052      C1057   1.250       .  A
O1053      C1056   1.284       .  A
O1054      C1066   1.261       .  A
O1055      C1068   1.291       .  A
C1056      C1401   1.478       .  S
C1057      C1471   1.476       .  S
O1059      C1062   1.261       .  A
O1060      C1062   1.274       .  A
C1062      C1941   1.486       .  S
O1063      C1068   1.267       .  A
O1064      C1066   1.284       .  A
C1065      O1067   1.284       .  A
C1065      C1440   1.480       .  S
C1066      C1412   1.472       .  S
C1068      C1384   1.498       .  S
Fe1069     O1085   2.023       .  S
Fe1069     O1075   2.127       .  S
Fe1069     O1082   2.096       .  S
Fe1069     O1074   2.005       .  S
Fe1069     O1080   1.913       .  S
Fe1070     O1073   2.022       .  S
Fe1070     O1077   2.147       .  S
Fe1070     O1081   2.033       .  S
Fe1070     O1086   2.136       .  S
Fe1070     O1080   1.908       .  S
Fe1071     O1089   2.139       .  S
Fe1071     O1076   2.016       .  S
Fe1071     O1083   2.024       .  S
Fe1071     O1072   2.153       .  S
Fe1071     O1080   1.918       .  S
O1072      C1079   1.285       .  A
O1073      C1087   1.263       .  A
O1074      C1079   1.253       .  A
O1075      C1078   1.281       .  A
O1076      C1088   1.263       .  A
O1077      C1090   1.290       .  A
C1078      O1083   1.262       .  A
C1078      C1415   1.483       .  S
C1079      C1373   1.473       .  S
O1081      C1084   1.261       .  A
O1082      C1084   1.275       .  A
C1084      C1482   1.478       .  S
O1085      C1090   1.266       .  A
O1086      C1088   1.285       .  A
C1087      O1089   1.285       .  A
C1087      C1496   1.484       .  S
C1088      C1398   1.481       .  S
C1090      C1356   1.494       .  S
Fe1091     O1107   2.093       .  S
Fe1091     O1097   2.005       .  S
Fe1091     O1104   2.019       .  S
Fe1091     O1096   2.129       .  S
Fe1091     O1102   1.913       .  S
Fe1092     O1095   2.136       .  S
Fe1092     O1099   2.037       .  S
Fe1092     O1103   2.152       .  S
Fe1092     O1108   2.021       .  S
Fe1092     O1102   1.909       .  S
Fe1093     O1111   2.016       .  S
Fe1093     O1098   2.136       .  S
Fe1093     O1105   2.154       .  S
Fe1093     O1094   2.025       .  S
Fe1093     O1102   1.917       .  S
O1094      C1101   1.262       .  A
O1095      C1109   1.286       .  A
O1096      C1101   1.281       .  A
O1097      C1100   1.252       .  A
O1098      C1110   1.285       .  A
O1099      C1112   1.261       .  A
C1100      O1105   1.285       .  A
C1100      C1370   1.474       .  S
C1101      C1510   1.485       .  S
O1103      C1106   1.291       .  A
O1104      C1106   1.267       .  A
C1106      C1342   1.504       .  S
O1107      C1112   1.273       .  A
O1108      C1110   1.264       .  A
C1109      O1111   1.263       .  A
C1109      C1527   1.482       .  S
C1110      C1426   1.485       .  S
C1112      C1443   1.482       .  S
Fe1113     O1129   2.086       .  S
Fe1113     O1119   2.004       .  S
Fe1113     O1126   2.017       .  S
Fe1113     O1124   1.909       .  S
Fe1114     O1117   2.142       .  S
Fe1114     O1121   2.051       .  S
Fe1114     O1125   2.157       .  S
Fe1114     O1130   2.024       .  S
Fe1114     O1124   1.910       .  S
Fe1115     O1133   2.018       .  S
Fe1115     O1120   2.139       .  S
Fe1115     O1127   2.150       .  S
Fe1115     O1124   1.926       .  S
O1116      C1123   1.266       .  A
O1117      C1131   1.285       .  A
O1118      C1123   1.284       .  A
O1119      C1122   1.247       .  A
O1120      C1132   1.287       .  A
O1121      C1134   1.262       .  A
C1122      O1127   1.282       .  A
C1122      C1300   1.484       .  S
C1123      C1328   1.486       .  S
O1125      C1128   1.294       .  A
O1126      C1128   1.266       .  A
C1128      C1454   1.504       .  S
O1129      C1134   1.271       .  A
O1130      C1132   1.265       .  A
C1131      O1133   1.262       .  A
C1131      C1317   1.474       .  S
C1132      C1286   1.496       .  S
C1134      C1275   1.494       .  S
Fe1135     O1151   2.016       .  S
Fe1135     O1148   2.089       .  S
Fe1135     O1140   2.006       .  S
Fe1135     O1146   1.908       .  S
Fe1136     O1139   2.026       .  S
Fe1136     O1143   2.150       .  S
Fe1136     O1147   2.041       .  S
Fe1136     O1152   2.135       .  S
Fe1136     O1146   1.906       .  S
Fe1137     O1155   2.140       .  S
Fe1137     O1142   2.016       .  S
Fe1137     O1149   2.031       .  S
Fe1137     O1138   2.156       .  S
Fe1137     O1146   1.923       .  S
O1138      C1145   1.284       .  A
O1139      C1153   1.264       .  A
O1140      C1145   1.250       .  A
O1141      C1144   1.286   1_455  A
O1142      C1154   1.264       .  A
O1143      C1156   1.292       .  A
C1144      C1216   1.490       .  S
C1145      C1303   1.487       .  S
O1147      C1150   1.261       .  A
O1148      C1150   1.272       .  A
C1150      C1759   1.480       .  S
O1151      C1156   1.264       .  A
O1152      C1154   1.286       .  A
C1153      O1155   1.285       .  A
C1153      C1258   1.487       .  S
C1154      C1233   1.481       .  S
C1156      C1387   1.499       .  S
Fe1157     O1173   2.018       .  S
Fe1157     O1163   2.127       .  S
Fe1157     O1170   2.092       .  S
Fe1157     O1162   2.007       .  S
Fe1157     O1168   1.908       .  S
Fe1158     O1161   2.021       .  S
Fe1158     O1165   2.153       .  S
Fe1158     O1169   2.042       .  S
Fe1158     O1174   2.143       .  S
Fe1158     O1168   1.912       .  S
Fe1159     O1177   2.146       .  S
Fe1159     O1164   2.030       .  S
Fe1159     O1171   2.028       .  S
Fe1159     O1160   2.153       .  S
Fe1159     O1168   1.921       .  S
O1160      C1167   1.282       .  A
O1161      C1175   1.264       .  A
O1162      C1167   1.249       .  A
O1163      C1166   1.283       .  A
O1164      C1176   1.264       .  A
O1165      C1178   1.292       .  A
C1166      O1171   1.266       .  A
C1166      C1230   1.478       .  S
C1167      C1202   1.492       .  S
O1169      C1172   1.261       .  A
O1170      C1172   1.273       .  A
C1172      C1289   1.473       .  S
O1173      C1178   1.262       .  A
O1174      C1176   1.285       .  A
C1175      O1177   1.287       .  A
C1175      C1272   1.484       .  S
C1176      C1219   1.481       .  S
C1178      C1359   1.506       .  S
Fe1179     O1195   2.095       .  S
Fe1179     O1185   2.005       .  S
Fe1179     O1192   2.029       .  S
Fe1179     O1184   2.133       .  S
Fe1179     O1190   1.911       .  S
Fe1180     O1183   2.137       .  S
Fe1180     O1187   2.040       .  S
Fe1180     O1191   2.148       .  S
Fe1180     O1196   2.022       .  S
Fe1180     O1190   1.909       .  S
Fe1181     O1199   2.022       .  S
Fe1181     O1186   2.136       .  S
Fe1181     O1193   2.159       .  S
Fe1181     O1182   2.030       .  S
Fe1181     O1190   1.925       .  S
O1182      C1189   1.264       .  A
O1183      C1197   1.286       .  A
O1184      C1189   1.282       .  A
O1185      C1188   1.250       .  A
O1186      C1198   1.286       .  A
O1187      C1200   1.261       .  A
C1188      O1193   1.284       .  A
C1188      C1205   1.492       .  S
C1189      C1314   1.495       .  S
O1191      C1194   1.291       .  A
O1192      C1194   1.269       .  A
C1194      C1345   1.499       .  S
O1195      C1200   1.274       .  A
O1196      C1198   1.264       .  A
C1197      O1199   1.265       .  A
C1197      C1331   1.481       .  S
C1198      C1244   1.485       .  S
C1200      C1261   1.485       .  S
C1201      C1202   1.418       .  A
C1201      C1206   1.401       .  A
C1201      H1208   1.084       .  S
C1202      C1203   1.409       .  A
C1203      C1204   1.396       .  A
C1203      N1210   1.430       .  S
C1204      C1205   1.417       .  A
C1204      H1209   1.084       .  S
C1205      C1206   1.410       .  A
C1206      N1207   1.432       .  S
N1207      H1211   1.042       .  S
N1207      H1212   1.045       .  S
N1210      H1213   1.044       .  S
N1210      H1214   1.042       .  S
C1215      C1216   1.406       .  A
C1215      C1220   1.412       .  A
C1215      H1222   1.083       .  S
C1216      C1217   1.414       .  A
C1217      C1218   1.405       .  A
C1217      N1224   1.433       .  S
C1218      C1219   1.403       .  A
C1218      H1223   1.084       .  S
C1219      C1220   1.412       .  A
C1220      N1221   1.437       .  S
N1221      H1225   1.045       .  S
N1221      H1226   1.046       .  S
N1224      H1227   1.045       .  S
N1224      H1228   1.046       .  S
C1229      C1230   1.411       .  A
C1229      C1234   1.407       .  A
C1229      H1236   1.084       .  S
C1230      C1231   1.407       .  A
C1231      C1232   1.397       .  A
C1231      N1238   1.433       .  S
C1232      C1233   1.412       .  A
C1232      H1237   1.084       .  S
C1233      C1234   1.406       .  A
C1234      N1235   1.437       .  S
N1235      H1239   1.046       .  S
N1235      H1240   1.045       .  S
N1238      H1241   1.045       .  S
N1238      H1242   1.045       .  S
C1243      C1244   1.413       .  A
C1243      C1248   1.402       .  A
C1243      H1250   1.084       .  S
C1244      C1245   1.407       .  A
C1245      C1246   1.408   1_545  A
C1245      N1252   1.437       .  S
C1246      C1247   1.410       .  A
C1246      H1763   1.082       .  S
C1247      C1662   1.480       .  S
C1247      C1248   1.401   1_565  A
C1248      N1249   1.432       .  S
N1249      H1253   1.046       .  S
N1249      H1254   1.045       .  S
H1251      C1758   1.084       .  S
N1252      H1255   1.046       .  S
N1252      H1256   1.046       .  S
C1257      C1258   1.400       .  A
C1257      C1262   1.411       .  A
C1257      H1264   1.083       .  S
C1258      C1259   1.419       .  A
C1259      C1260   1.402       .  A
C1259      N1266   1.433       .  S
C1260      C1261   1.397       .  A
C1260      H1265   1.084       .  S
C1261      C1262   1.422       .  A
C1262      N1263   1.438       .  S
N1263      H1267   1.046       .  S
N1263      H1268   1.046       .  S
N1266      H1269   1.045       .  S
N1266      H1270   1.046       .  S
C1271      C1272   1.412       .  A
C1271      C1276   1.408       .  A
C1271      H1278   1.084       .  S
C1272      C1273   1.406       .  A
C1273      C1786   1.401       .  A
C1273      N1280   1.432       .  S
C1274      C1785   1.405   1_545  A
C1274      C1275   1.415       .  A
C1274      H1279   1.081       .  S
C1275      C1788   1.410   1_545  A
C1276      C1787   1.407       .  A
C1276      N1277   1.437       .  S
N1277      H1281   1.046       .  S
N1277      H1282   1.045       .  S
N1280      H1283   1.046       .  S
N1280      H1796   1.045       .  S
H1284      N1792   1.045       .  S
C1285      C1286   1.417       .  A
C1285      C1290   1.404       .  A
C1285      H1292   1.083       .  S
C1286      C1287   1.411       .  A
C1287      C1288   1.406       .  A
C1287      N1294   1.432       .  S
C1288      C1289   1.406       .  A
C1288      H1293   1.084       .  S
C1289      C1290   1.398       .  A
C1290      N1291   1.432       .  S
N1291      H1295   1.045       .  S
N1291      H1296   1.046       .  S
N1294      H1297   1.045       .  S
N1294      H1298   1.046       .  S
C1299      C1300   1.418   1_565  A
C1299      C1816   1.403   1_655  A
C1299      H1306   1.083       .  S
C1301      C1302   1.399       .  A
C1301      N1308   1.432       .  S
C1302      C1815   1.415   1_545  A
C1302      H1307   1.084       .  S
C1303      C1814   1.416       .  A
C1304      C1811   1.403   1_455  A
C1304      N1305   1.438       .  S
N1305      H1309   1.045   1_455  S
N1305      H1310   1.046       .  S
N1308      H1311   1.045       .  S
N1308      H1312   1.046       .  S
C1313      C1314   1.415       .  A
C1313      C1318   1.401       .  A
C1313      H1320   1.083       .  S
C1314      C1315   1.415       .  A
C1315      C1316   1.409       .  A
C1315      N1322   1.437       .  S
C1316      C1317   1.406       .  A
C1316      H1321   1.084       .  S
C1317      C1318   1.404       .  A
C1318      N1319   1.431       .  S
N1319      H1323   1.046       .  S
N1319      H1324   1.045       .  S
N1322      H1325   1.045       .  S
N1322      H1326   1.046       .  S
C1327      C1328   1.413       .  A
C1327      C1332   1.409       .  A
C1327      H1334   1.083       .  S
C1328      C1329   1.405       .  A
C1329      C1330   1.405       .  A
C1329      N1336   1.432       .  S
C1330      C1331   1.410       .  A
C1330      H1335   1.084       .  S
C1331      C1332   1.405       .  A
C1332      N1333   1.437       .  S
N1333      H1337   1.045       .  S
N1333      H1338   1.045       .  S
N1336      H1339   1.046       .  S
N1336      H1340   1.046       .  S
C1341      C1342   1.416       .  A
C1341      C1346   1.408       .  A
C1341      H1348   1.083       .  S
C1342      C1343   1.412       .  A
C1343      C1344   1.413       .  A
C1343      N1350   1.437       .  S
C1344      C1345   1.414       .  A
C1344      H1349   1.083       .  S
C1345      C1346   1.409       .  A
C1346      N1347   1.438       .  S
N1347      H1351   1.046       .  S
N1347      H1352   1.046       .  S
N1350      H1353   1.046       .  S
N1350      H1354   1.045       .  S
C1355      C1356   1.397       .  A
C1355      C1360   1.402       .  A
C1355      H1362   1.084       .  S
C1356      C1357   1.420       .  A
C1357      C1358   1.410       .  A
C1357      N1364   1.438       .  S
C1358      C1359   1.403       .  A
C1358      H1363   1.083       .  S
C1359      C1360   1.433       .  A
C1360      N1361   1.433       .  S
N1361      H1365   1.045       .  S
N1361      H1366   1.045       .  S
N1364      H1367   1.046       .  S
N1364      H1368   1.046       .  S
C1369      C1370   1.400   1_556  A
C1369      C1374   1.403       .  A
C1369      H1376   1.084       .  S
C1370      C1371   1.417       .  A
C1371      C1372   1.403       .  A
C1371      N1378   1.434       .  S
C1372      C1373   1.399   1_554  A
C1372      H1377   1.084       .  S
C1373      C1374   1.416       .  A
C1374      N1375   1.434       .  S
N1375      H1379   1.046       .  S
N1375      H1380   1.046       .  S
N1378      H1381   1.046       .  S
N1378      H1382   1.045       .  S
C1383      C1384   1.400       .  A
C1383      C1388   1.403       .  A
C1383      H1390   1.084       .  S
C1385      C1386   1.410       .  A
C1385      N1392   1.439       .  S
C1386      C1387   1.401       .  A
C1386      H1391   1.083       .  S
C1388      N1389   1.433       .  S
N1389      H1393   1.044       .  S
N1389      H1394   1.046       .  S
N1392      H1395   1.045       .  S
N1392      H1396   1.046       .  S
C1397      C1398   1.412   1_554  A
C1397      C1402   1.403       .  A
C1397      H1404   1.084       .  S
C1398      C1399   1.406       .  A
C1399      C1400   1.407       .  A
C1399      N1406   1.437       .  S
C1400      C1401   1.411   1_556  A
C1400      H1405   1.084       .  S
C1401      C1402   1.401       .  A
C1402      N1403   1.432       .  S
N1403      H1407   1.046       .  S
N1403      H1408   1.045       .  S
N1406      H1409   1.046       .  S
N1406      H1410   1.045       .  S
C1411      C1412   1.408   1_556  A
C1411      C1416   1.404       .  A
C1411      H1418   1.084       .  S
C1412      C1413   1.401       .  A
C1413      C1414   1.406   1_554  A
C1413      N1420   1.437       .  S
C1414      C1415   1.414       .  A
C1414      H1419   1.083       .  S
C1415      C1416   1.407       .  A
C1416      N1417   1.437       .  S
N1417      H1421   1.046       .  S
N1417      H1422   1.045       .  S
N1420      H1423   1.045       .  S
N1420      H1424   1.046       .  S
C1425      C1426   1.412       .  A
C1425      C1430   1.402       .  A
C1425      H1432   1.084       .  S
C1426      C1427   1.407       .  A
C1427      C1428   1.409       .  A
C1427      N1434   1.437       .  S
C1428      C1429   1.412   1_545  A
C1428      H1945   1.084   1_545  S
C1429      C1574   1.483       .  S
C1429      C1430   1.403   1_565  A
C1430      N1431   1.432       .  S
N1431      H1435   1.046       .  S
N1431      H1436   1.046       .  S
H1433      C1940   1.084       .  S
N1434      H1437   1.046       .  S
N1434      H1438   1.046       .  S
C1439      C1440   1.410       .  A
C1439      C1444   1.401       .  A
C1439      H1446   1.084       .  S
C1440      C1441   1.409       .  A
C1441      C1442   1.402       .  A
C1441      N1448   1.432       .  S
C1442      C1443   1.412       .  A
C1442      H1447   1.084       .  S
C1443      C1444   1.404       .  A
C1444      N1445   1.432       .  S
N1445      H1449   1.046       .  S
N1445      H1450   1.046       .  S
N1448      H1451   1.046       .  S
N1448      H1452   1.045       .  S
C1453      C1454   1.402       .  A
C1453      C1458   1.408       .  A
C1453      H1460   1.083       .  S
C1455      C1456   1.411       .  A
C1455      N1462   1.433       .  S
C1456      C1457   1.403       .  A
C1456      H1461   1.083       .  S
C1458      N1459   1.433       .  S
N1459      H1463   1.046       .  S
N1459      H1464   1.045       .  S
N1462      H1465   1.046       .  S
N1462      H1466   1.046       .  S
C1467      C1468   1.413       .  A
C1467      C1984   1.401   1_545  A
C1467      H1474   1.085       .  S
C1469      C1470   1.400       .  A
C1469      N1476   1.431       .  S
C1470      C1983   1.412   1_545  A
C1470      H1475   1.085       .  S
C1471      C1982   1.413       .  A
C1472      C1979   1.401       .  A
C1472      N1473   1.431       .  S
N1473      H1477   1.045       .  S
N1473      H1478   1.045       .  S
N1476      H1479   1.045       .  S
N1476      H1480   1.045       .  S
C1481      C1482   1.395       .  A
C1481      C1486   1.403       .  A
C1481      H1488   1.084       .  S
C1482      C1483   1.416       .  A
C1483      C1484   1.406       .  A
C1483      N1490   1.433       .  S
C1484      C1485   1.401       .  A
C1484      H1489   1.084       .  S
C1485      C1486   1.422       .  A
C1486      N1487   1.433       .  S
N1487      H1491   1.046       .  S
N1487      H1492   1.046       .  S
N1490      H1493   1.046       .  S
N1490      H1494   1.045       .  S
C1495      C1496   1.398       .  A
C1495      C2012   1.409       .  A
C1495      H1502   1.084       .  S
C1496      C1497   1.421       .  A
C1497      C1498   1.404       .  A
C1497      N1504   1.439       .  S
C1498      C2011   1.397       .  A
C1498      H1503   1.084       .  S
C1499      C2010   1.397   1_545  A
C1499      C1500   1.421       .  A
C1500      C2007   1.410   1_545  A
C1500      N1501   1.438       .  S
N1501      H1505   1.046       .  S
N1501      H1506   1.046       .  S
N1504      H1507   1.046       .  S
N1504      H1508   1.045       .  S
C1509      C1510   1.414   1_556  A
C1509      C1514   1.406       .  A
C1509      H1516   1.083       .  S
C1510      C1511   1.408       .  A
C1511      C1512   1.406       .  A
C1511      N1518   1.437       .  S
C1512      C1513   1.408   1_554  A
C1512      H1517   1.084       .  S
C1513      C1514   1.402       .  A
C1514      N1515   1.437       .  S
N1515      H1519   1.046       .  S
N1515      H1520   1.045       .  S
N1518      H1521   1.046       .  S
N1518      H1522   1.046       .  S
C1523      C1524   1.410   1_554  A
C1523      C1528   1.399       .  A
C1523      H1530   1.084       .  S
C1524      C1525   1.404       .  A
C1525      C1526   1.407       .  A
C1525      N1532   1.437       .  S
C1526      C1527   1.413   1_556  A
C1526      H1531   1.084       .  S
C1527      C1528   1.408       .  A
C1528      N1529   1.432       .  S
N1529      H1533   1.045       .  S
N1529      H1534   1.045       .  S
N1532      H1535   1.046       .  S
N1532      H1536   1.046       .  S
Fe1537     O1553   2.092       .  S
Fe1537     O1543   2.005       .  S
Fe1537     O1550   2.025       .  S
Fe1537     O1548   1.909       .  S
Fe1538     O1541   2.138       .  S
Fe1538     O1545   2.038       .  S
Fe1538     O1549   2.152       .  S
Fe1538     O1554   2.022       .  S
Fe1538     O1548   1.910       .  S
Fe1539     O1557   2.012       .  S
Fe1539     O1544   2.132       .  S
Fe1539     O1551   2.145       .  S
Fe1539     O1540   2.024       .  S
Fe1539     O1548   1.922       .  S
O1541      C1555   1.285       .  A
O1542      C1547   1.285   1_455  A
O1543      C1546   1.251       .  A
O1544      C1556   1.284       .  A
O1545      C1558   1.261       .  A
C1546      O1551   1.282       .  A
C1546      C1980   1.477       .  S
C1547      C2036   1.482       .  S
O1549      C1552   1.292       .  A
O1550      C1552   1.266       .  A
C1552      C1969   1.499       .  S
O1553      C1558   1.274       .  A
O1554      C1556   1.264       .  A
C1555      O1557   1.262       .  A
C1555      C2025   1.475       .  S
C1556      C1997   1.479       .  S
C1558      C2011   1.484       .  S
Fe1559     O1575   2.023       .  S
Fe1559     O1572   2.102       .  S
Fe1559     O1564   2.000       .  S
Fe1559     O1570   1.914       .  S
Fe1560     O1563   2.021       .  S
Fe1560     O1567   2.146       .  S
Fe1560     O1571   2.034       .  S
Fe1560     O1576   2.130       .  S
Fe1560     O1570   1.910       .  S
Fe1561     O1579   2.124       .  S
Fe1561     O1566   2.024       .  S
Fe1561     O1573   2.025       .  S
Fe1561     O1562   2.151       .  S
Fe1561     O1570   1.926       .  S
O1562      C1569   1.283       .  A
O1563      C1577   1.264       .  A
O1564      C1569   1.252       .  A
O1565      C1568   1.283       .  A
O1566      C1578   1.265       .  A
O1567      C1580   1.290       .  A
C1568      C1913   1.475       .  S
C1569      C1983   1.478       .  S
O1571      C1574   1.261       .  A
O1572      C1574   1.275       .  A
O1575      C1580   1.266       .  A
O1576      C1578   1.284       .  A
C1577      O1579   1.282       .  A
C1577      C1952   1.473       .  S
C1578      C1924   1.474       .  S
C1580      C1896   1.496       .  S
Fe1581     O1597   2.023       .  S
Fe1581     O1587   2.133       .  S
Fe1581     O1594   2.094       .  S
Fe1581     O1586   2.006       .  S
Fe1581     O1592   1.908       .  S
Fe1582     O1585   2.019       .  S
Fe1582     O1589   2.137       .  S
Fe1582     O1593   2.030       .  S
Fe1582     O1598   2.133       .  S
Fe1582     O1592   1.914       .  S
Fe1583     O1601   2.147       .  S
Fe1583     O1588   2.015       .  S
Fe1583     O1595   2.028       .  S
Fe1583     O1584   2.152       .  S
Fe1583     O1592   1.915       .  S
O1584      C1591   1.284       .  A
O1585      C1599   1.262       .  A
O1586      C1591   1.250       .  A
O1587      C1590   1.284       .  A
O1588      C1600   1.262       .  A
O1589      C1602   1.289       .  A
C1590      O1595   1.266       .  A
C1590      C1927   1.492       .  S
C1591      C1885   1.475       .  S
O1593      C1596   1.260       .  A
O1594      C1596   1.275       .  A
C1596      C1994   1.483       .  S
O1597      C1602   1.266       .  A
O1598      C1600   1.284       .  A
C1599      O1601   1.287       .  A
C1599      C2008   1.487       .  S
C1600      C1910   1.475       .  S
C1602      C1868   1.490       .  S
Fe1603     O1619   2.096       .  S
Fe1603     O1609   2.010       .  S
Fe1603     O1616   2.032       .  S
Fe1603     O1608   2.120       .  S
Fe1603     O1614   1.916       .  S
Fe1604     O1607   2.138       .  S
Fe1604     O1611   2.030       .  S
Fe1604     O1615   2.147       .  S
Fe1604     O1620   2.021       .  S
Fe1604     O1614   1.912       .  S
Fe1605     O1623   2.019       .  S
Fe1605     O1610   2.135       .  S
Fe1605     O1617   2.147       .  S
Fe1605     O1606   2.027       .  S
Fe1605     O1614   1.922       .  S
O1606      C1613   1.263       .  A
O1607      C1621   1.286       .  A
O1608      C1613   1.280       .  A
O1609      C1612   1.254       .  A
O1610      C1622   1.285       .  A
O1611      C1624   1.261       .  A
C1612      O1617   1.284       .  A
C1612      C1882   1.474       .  S
C1613      C2022   1.481       .  S
O1615      C1618   1.290       .  A
O1616      C1618   1.267       .  A
C1618      C1854   1.493       .  S
O1619      C1624   1.275       .  A
O1620      C1622   1.263       .  A
C1621      O1623   1.264       .  A
C1621      C2039   1.483       .  S
C1622      C1938   1.484       .  S
C1624      C1955   1.487       .  S
Fe1625     O1641   2.091       .  S
Fe1625     O1631   2.001       .  S
Fe1625     O1638   2.013       .  S
Fe1625     O1636   1.911       .  S
Fe1626     O1629   2.135       .  S
Fe1626     O1633   2.047       .  S
Fe1626     O1637   2.152       .  S
Fe1626     O1642   2.025       .  S
Fe1626     O1636   1.907       .  S
Fe1627     O1645   2.016       .  S
Fe1627     O1632   2.141       .  S
Fe1627     O1639   2.165       .  S
Fe1627     O1636   1.928       .  S
O1628      C1635   1.266       .  A
O1629      C1643   1.285       .  A
O1630      C1635   1.285       .  A
O1631      C1634   1.246       .  A
O1632      C1644   1.287       .  A
O1633      C1646   1.261       .  A
C1634      O1639   1.283       .  A
C1634      C1812   1.488       .  S
C1635      C1840   1.491       .  S
O1637      C1640   1.294       .  A
O1638      C1640   1.266       .  A
C1640      C1966   1.498       .  S
O1641      C1646   1.271       .  A
O1642      C1644   1.265       .  A
C1643      O1645   1.263       .  A
C1643      C1829   1.476       .  S
C1644      C1798   1.487       .  S
C1646      C1787   1.487       .  S
Fe1647     O1663   2.019       .  S
Fe1647     O1660   2.097       .  S
Fe1647     O1652   2.006       .  S
Fe1647     O1658   1.909       .  S
Fe1648     O1651   2.022       .  S
Fe1648     O1655   2.164       .  S
Fe1648     O1659   2.037       .  S
Fe1648     O1664   2.151       .  S
Fe1648     O1658   1.908       .  S
Fe1649     O1667   2.133       .  S
Fe1649     O1654   2.018       .  S
Fe1649     O1661   2.032       .  S
Fe1649     O1650   2.150       .  S
Fe1649     O1658   1.927       .  S
O1650      C1657   1.282       .  A
O1651      C1665   1.262       .  A
O1652      C1657   1.249       .  A
O1653      C1656   1.284       .  A
O1654      C1666   1.264       .  A
O1655      C1668   1.295       .  A
C1656      C1728   1.481       .  S
C1657      C1815   1.485       .  S
O1659      C1662   1.260       .  A
O1660      C1662   1.273       .  A
O1663      C1668   1.264       .  A
O1664      C1666   1.289       .  A
C1665      O1667   1.284       .  A
C1665      C1770   1.484       .  S
C1666      C1745   1.483       .  S
C1668      C1899   1.510       .  S
Fe1669     O1685   2.014       .  S
Fe1669     O1675   2.139       .  S
Fe1669     O1682   2.099       .  S
Fe1669     O1674   2.006       .  S
Fe1669     O1680   1.904       .  S
Fe1670     O1673   2.021       .  S
Fe1670     O1677   2.147       .  S
Fe1670     O1681   2.044       .  S
Fe1670     O1686   2.134       .  S
Fe1670     O1680   1.915       .  S
Fe1671     O1689   2.146       .  S
Fe1671     O1676   2.018       .  S
Fe1671     O1683   2.029       .  S
Fe1671     O1672   2.148       .  S
Fe1671     O1680   1.915       .  S
O1672      C1679   1.282       .  A
O1673      C1687   1.263       .  A
O1674      C1679   1.250       .  A
O1675      C1678   1.285       .  A
O1676      C1688   1.260       .  A
O1677      C1690   1.291       .  A
C1678      O1683   1.266       .  A
C1678      C1742   1.492       .  S
C1679      C1714   1.488       .  S
O1681      C1684   1.263       .  A
O1682      C1684   1.276       .  A
C1684      C1801   1.489       .  S
O1685      C1690   1.262       .  A
O1686      C1688   1.284       .  A
C1687      O1689   1.287       .  A
C1687      C1784   1.478       .  S
C1688      C1731   1.470       .  S
C1690      C1871   1.502       .  S
Fe1691     O1707   2.093       .  S
Fe1691     O1697   2.001       .  S
Fe1691     O1704   2.017       .  S
Fe1691     O1696   2.127       .  S
Fe1691     O1702   1.907       .  S
Fe1692     O1695   2.140       .  S
Fe1692     O1699   2.035       .  S
Fe1692     O1703   2.162       .  S
Fe1692     O1708   2.024       .  S
Fe1692     O1702   1.910       .  S
Fe1693     O1711   2.028       .  S
Fe1693     O1698   2.132       .  S
Fe1693     O1705   2.163       .  S
Fe1693     O1694   2.027       .  S
Fe1693     O1702   1.928       .  S
O1694      C1701   1.264       .  A
O1695      C1709   1.286       .  A
O1696      C1701   1.282       .  A
O1697      C1700   1.248       .  A
O1698      C1710   1.285       .  A
O1699      C1712   1.260       .  A
C1700      O1705   1.283       .  A
C1700      C1717   1.492       .  S
C1701      C1826   1.484       .  S
O1703      C1706   1.293       .  A
O1704      C1706   1.266       .  A
C1706      C1857   1.503       .  S
O1707      C1712   1.273       .  A
O1708      C1710   1.266       .  A
C1709      O1711   1.266       .  A
C1709      C1843   1.482       .  S
C1710      C1756   1.481       .  S
C1712      C1773   1.479       .  S
C1713      C1714   1.416       .  A
C1713      C1718   1.401       .  A
C1713      H1720   1.084       .  S
C1714      C1715   1.409       .  A
C1715      C1716   1.395       .  A
C1715      N1722   1.431       .  S
C1716      C1717   1.416       .  A
C1716      H1721   1.084       .  S
C1717      C1718   1.411       .  A
C1718      N1719   1.430       .  S
N1719      H1723   1.040       .  S
N1719      H1724   1.045       .  S
N1722      H1725   1.046       .  S
N1722      H1726   1.040       .  S
C1727      C1728   1.405       .  A
C1727      C1732   1.404       .  A
C1727      H1734   1.083       .  S
C1728      C1729   1.415       .  A
C1729      C1730   1.405       .  A
C1729      N1736   1.438       .  S
C1730      C1731   1.402       .  A
C1730      H1735   1.084       .  S
C1731      C1732   1.407       .  A
C1732      N1733   1.432       .  S
N1733      H1737   1.046       .  S
N1733      H1738   1.043       .  S
N1736      H1739   1.046       .  S
N1736      H1740   1.046       .  S
C1741      C1742   1.415       .  A
C1741      C1746   1.410       .  A
C1741      H1748   1.083       .  S
C1742      C1743   1.412       .  A
C1743      C1744   1.401       .  A
C1743      N1750   1.432       .  S
C1744      C1745   1.410       .  A
C1744      H1749   1.084       .  S
C1745      C1746   1.404       .  A
C1746      N1747   1.436       .  S
N1747      H1751   1.045       .  S
N1747      H1752   1.045       .  S
N1750      H1753   1.046       .  S
N1750      H1754   1.044       .  S
C1755      C1756   1.410       .  A
C1755      C1760   1.402       .  A
C1755      H1762   1.084       .  S
C1756      C1757   1.404       .  A
C1757      C1758   1.406       .  A
C1757      N1764   1.432       .  S
C1758      C1759   1.411       .  A
C1759      C1760   1.404       .  A
C1760      N1761   1.432       .  S
N1761      H1765   1.046       .  S
N1761      H1766   1.046       .  S
N1764      H1767   1.045       .  S
N1764      H1768   1.046       .  S
C1769      C1770   1.399       .  A
C1769      C1774   1.407       .  A
C1769      H1776   1.084       .  S
C1770      C1771   1.420       .  A
C1771      C1772   1.402       .  A
C1771      N1778   1.433       .  S
C1772      C1773   1.396       .  A
C1772      H1777   1.084       .  S
C1773      C1774   1.419       .  A
C1774      N1775   1.438       .  S
N1775      H1779   1.046       .  S
N1775      H1780   1.046       .  S
N1778      H1781   1.046       .  S
N1778      H1782   1.046       .  S
C1783      C1784   1.406       .  A
C1783      C1788   1.404       .  A
C1783      H1790   1.084       .  S
C1784      C1785   1.405       .  A
C1785      N1792   1.432       .  S
C1786      C1787   1.410       .  A
C1786      H1791   1.078       .  S
C1788      N1789   1.432       .  S
N1789      H1793   1.046       .  S
N1789      H1794   1.046       .  S
N1792      H1795   1.045       .  S
C1797      C1798   1.411       .  A
C1797      C1802   1.403       .  A
C1797      H1804   1.084       .  S
C1798      C1799   1.407       .  A
C1799      C1800   1.412       .  A
C1799      N1806   1.437       .  S
C1800      C1801   1.414       .  A
C1800      H1805   1.084       .  S
C1801      C1802   1.404       .  A
C1802      N1803   1.432       .  S
N1803      H1807   1.046       .  S
N1803      H1808   1.045       .  S
N1806      H1809   1.046       .  S
N1806      H1810   1.045       .  S
C1811      C1812   1.419       .  A
C1811      H1818   1.083       .  S
C1813      C1814   1.400       .  A
C1813      N1820   1.432       .  S
C1814      H1819   1.084       .  S
C1816      N1817   1.438       .  S
N1817      H1821   1.045   1_455  S
N1817      H1822   1.045       .  S
N1820      H1823   1.046       .  S
N1820      H1824   1.045       .  S
C1825      C1826   1.413       .  A
C1825      C1830   1.399       .  A
C1825      H1832   1.084       .  S
C1826      C1827   1.409       .  A
C1827      C1828   1.405       .  A
C1827      N1834   1.437       .  S
C1828      C1829   1.408       .  A
C1828      H1833   1.084       .  S
C1829      C1830   1.406       .  A
C1830      N1831   1.430       .  S
N1831      H1835   1.045       .  S
N1831      H1836   1.042       .  S
N1834      H1837   1.046       .  S
N1834      H1838   1.046       .  S
C1839      C1840   1.414       .  A
C1839      C1844   1.409       .  A
C1839      H1846   1.083       .  S
C1840      C1841   1.407       .  A
C1841      C1842   1.406       .  A
C1841      N1848   1.432       .  S
C1842      C1843   1.409       .  A
C1842      H1847   1.084       .  S
C1843      C1844   1.405       .  A
C1844      N1845   1.437       .  S
N1845      H1849   1.046       .  S
N1845      H1850   1.045       .  S
N1848      H1851   1.045       .  S
N1848      H1852   1.046       .  S
C1853      C1854   1.413       .  A
C1853      C1858   1.414       .  A
C1853      H1860   1.084       .  S
C1854      C1855   1.404       .  A
C1855      C1856   1.404       .  A
C1855      N1862   1.432       .  S
C1856      C1857   1.416       .  A
C1856      H1861   1.083       .  S
C1857      C1858   1.410       .  A
C1858      N1859   1.431       .  S
N1859      H1863   1.046       .  S
N1859      H1864   1.045       .  S
N1862      H1865   1.045       .  S
N1862      H1866   1.046       .  S
C1867      C1868   1.396       .  A
C1867      C1872   1.399       .  A
C1867      H1874   1.084       .  S
C1868      C1869   1.420       .  A
C1869      C1870   1.410       .  A
C1869      N1876   1.438       .  S
C1870      C1871   1.404       .  A
C1870      H1875   1.083       .  S
C1871      C1872   1.432       .  A
C1872      N1873   1.433       .  S
N1873      H1877   1.045       .  S
N1873      H1878   1.045       .  S
N1876      H1879   1.046       .  S
N1876      H1880   1.046       .  S
C1881      C1882   1.400   1_556  A
C1881      C1886   1.403       .  A
C1881      H1888   1.084       .  S
C1882      C1883   1.416       .  A
C1883      C1884   1.402   1_554  A
C1883      N1890   1.434       .  S
C1884      C1885   1.400       .  A
C1884      H1889   1.084   1_556  S
C1885      C1886   1.418       .  A
C1886      N1887   1.434       .  S
N1887      H1891   1.046       .  S
N1887      H1892   1.046       .  S
N1890      H1893   1.046       .  S
N1890      H1894   1.046       .  S
C1895      C1896   1.399       .  A
C1895      C1900   1.403       .  A
C1895      H1902   1.084       .  S
C1897      C1898   1.414       .  A
C1897      N1904   1.439       .  S
C1898      C1899   1.403       .  A
C1898      H1903   1.083       .  S
C1900      N1901   1.433       .  S
N1901      H1905   1.045       .  S
N1901      H1906   1.045       .  S
N1904      H1907   1.046       .  S
N1904      H1908   1.045       .  S
C1909      C1910   1.410   1_554  A
C1909      C1914   1.400       .  A
C1909      H1916   1.084       .  S
C1910      C1911   1.404       .  A
C1911      C1912   1.407       .  A
C1911      N1918   1.437       .  S
C1912      C1913   1.412   1_556  A
C1912      H1917   1.084       .  S
C1913      C1914   1.400       .  A
C1914      N1915   1.432       .  S
N1915      H1919   1.046       .  S
N1915      H1920   1.045       .  S
N1918      H1921   1.045       .  S
N1918      H1922   1.046       .  S
C1923      C1924   1.406   1_556  A
C1923      C1928   1.407       .  A
C1923      H1930   1.084       .  S
C1924      C1925   1.402       .  A
C1925      C1926   1.407   1_554  A
C1925      N1932   1.438       .  S
C1926      C1927   1.415       .  A
C1926      H1931   1.083       .  S
C1927      C1928   1.412       .  A
C1928      N1929   1.437       .  S
N1929      H1933   1.046       .  S
N1929      H1934   1.045       .  S
N1932      H1935   1.046       .  S
N1932      H1936   1.045       .  S
C1937      C1938   1.412       .  A
C1937      C1942   1.406       .  A
C1937      H1944   1.084       .  S
C1938      C1939   1.405       .  A
C1939      C1940   1.408       .  A
C1939      N1946   1.437       .  S
C1940      C1941   1.413       .  A
C1941      C1942   1.408       .  A
C1942      N1943   1.438       .  S
N1943      H1947   1.046       .  S
N1943      H1948   1.045       .  S
N1946      H1949   1.046       .  S
N1946      H1950   1.046       .  S
C1951      C1952   1.407       .  A
C1951      C1956   1.401       .  A
C1951      H1958   1.084       .  S
C1952      C1953   1.405       .  A
C1953      C1954   1.400       .  A
C1953      N1960   1.432       .  S
C1954      C1955   1.414       .  A
C1954      H1959   1.081       .  S
C1955      C1956   1.407       .  A
C1956      N1957   1.432       .  S
N1957      H1961   1.046       .  S
N1957      H1962   1.046       .  S
N1960      H1963   1.046       .  S
N1960      H1964   1.045       .  S
C1965      C1966   1.400       .  A
C1965      C1970   1.409       .  A
C1965      H1972   1.083       .  S
C1967      C1968   1.408       .  A
C1967      N1974   1.433       .  S
C1968      C1969   1.399       .  A
C1968      H1973   1.084       .  S
C1970      N1971   1.439       .  S
N1971      H1975   1.046       .  S
N1971      H1976   1.045       .  S
N1974      H1977   1.046       .  S
N1974      H1978   1.046       .  S
C1979      C1980   1.412       .  A
C1979      H1986   1.085       .  S
C1981      C1982   1.400       .  A
C1981      N1988   1.432       .  S
C1982      H1987   1.085       .  S
C1984      N1985   1.431       .  S
N1985      H1989   1.045       .  S
N1985      H1990   1.045       .  S
N1988      H1991   1.046       .  S
N1988      H1992   1.045       .  S
C1993      C1994   1.397       .  A
C1993      C1998   1.402       .  A
C1993      H2000   1.084       .  S
C1994      C1995   1.421       .  A
C1995      C1996   1.405       .  A
C1995      N2002   1.432       .  S
C1996      C1997   1.396       .  A
C1996      H2001   1.084       .  S
C1997      C1998   1.417       .  A
C1998      N1999   1.433       .  S
N1999      H2003   1.046       .  S
N1999      H2004   1.045       .  S
N2002      H2005   1.046       .  S
N2002      H2006   1.045       .  S
C2007      C2008   1.398       .  A
C2007      H2014   1.083       .  S
C2008      C2009   1.420       .  A
C2009      C2010   1.404       .  A
C2009      N2016   1.433       .  S
C2010      H2015   1.084       .  S
C2011      C2012   1.421       .  A
C2012      N2013   1.438       .  S
N2013      H2017   1.045       .  S
N2013      H2018   1.046       .  S
N2016      H2019   1.046       .  S
N2016      H2020   1.045       .  S
C2021      C2022   1.412   1_556  A
C2021      C2026   1.406       .  A
C2021      H2028   1.083       .  S
C2022      C2023   1.407       .  A
C2023      C2024   1.404       .  A
C2023      N2030   1.438       .  S
C2024      C2025   1.409   1_554  A
C2024      H2029   1.084       .  S
C2025      C2026   1.403       .  A
C2026      N2027   1.436       .  S
N2027      H2031   1.046       .  S
N2027      H2032   1.045       .  S
N2030      H2033   1.046       .  S
N2030      H2034   1.046       .  S
C2035      C2036   1.411   1_554  A
C2035      C2040   1.400       .  A
C2035      H2042   1.084       .  S
C2036      C2037   1.405       .  A
C2037      C2038   1.407       .  A
C2037      N2044   1.437       .  S
C2038      C2039   1.412   1_556  A
C2038      H2043   1.084       .  S
C2039      C2040   1.408       .  A
C2040      N2041   1.431       .  S
N2041      H2045   1.045       .  S
N2041      H2046   1.044       .  S
N2044      H2047   1.046       .  S
N2044      H2048   1.045       .  S
