geometry optimzed in LAMMPS
_audit_creation_date              2020-12-01 
_audit_creation_method            'lammps2cif' 
_symmetry_space_group_name_H-M    'P1' 
_symmetry_Int_Tables_number       1 
_symmetry_cell_setting            triclinic 
loop_ 
_symmetry_equiv_pos_as_xyz 
  x,y,z 
_cell_length_a                    55.70578924 
_cell_length_b                    22.146455585920997 
_cell_length_c                    118.4580955387098 
_cell_angle_alpha                 90.28287727293248 
_cell_angle_beta                  90.59656061586038 
_cell_angle_gamma                 90.19104038616832 
loop_ 
_atom_site_label 
_atom_site_type_symbol 
_atom_site_fract_x 
_atom_site_fract_y 
_atom_site_fract_z 
_atom_site_charge 
O1          O  0.77713101  0.94514034  0.18297805    -0.72200
O2          O  0.71276887  0.00691608  0.18407155    -0.72400
O3          O  0.74452754  0.96537175  0.19920535    -0.72200
O4          O  0.74564247  0.99051775  0.16793389    -0.72200
O5          O  0.72884162  0.90336079  0.16486898    -0.72200
O6          O  0.73292342  0.87250359  0.19683169    -0.72200
O7          O  0.69963811  0.91471703  0.18263774    -0.72200
O8          O  0.76224107  0.85682952  0.17899134    -0.72400
V9          V  0.74482395  0.97521209  0.18349446     1.35200
V10         V  0.73128128  0.88843322  0.18085861     1.35200
C11         C  0.78043342  0.88980493  0.18057364     0.77100
C12         C  0.69525621  0.96999908  0.18385995     0.77100
C13         C  0.73832959  0.91585365  0.20347783     0.77000
C14         C  0.73659146  0.95327005  0.16104055     0.77000
O15         O  0.69319828  0.87927601  0.31098944    -0.72200
O16         O  0.75750311  0.82110995  0.30673719    -0.72400
O17         O  0.72827895  0.83413523  0.32446337    -0.72200
O18         O  0.72219063  0.86230138  0.29329704    -0.72200
O19         O  0.73828377  0.95114315  0.29526608    -0.72200
O20         O  0.73975249  0.92673028  0.32740910    -0.72200
O21         O  0.77046962  0.91170723  0.31037612    -0.72200
O22         O  0.70779323  0.97000967  0.31242230    -0.72400
V23         V  0.72549039  0.85091336  0.30894647     1.35200
V24         V  0.73875347  0.93819691  0.31132232     1.35200
C25         C  0.68977433  0.93565656  0.31221930     0.77100
C26         C  0.77499805  0.85762924  0.30795415     0.77100
C27         C  0.73490530  0.87477759  0.33129996     0.77000
C28         C  0.72994156  0.90986406  0.28881850     0.77000
O29         O  0.94756012  0.63769279  0.17923496    -0.72200
O30         O  0.01261462  0.58101990  0.18071533    -0.72400
O31         O  0.98146094  0.63000029  0.19526383    -0.72200
O32         O  0.97805675  0.58545315  0.16471995    -0.72200
O33         O  0.99092413  0.67362302  0.15959440    -0.72200
O34         O  0.99454904  0.71938037  0.19099401    -0.72200
O35         O  0.02462864  0.67059604  0.17597790    -0.72200
O36         O  0.96105034  0.72591633  0.17448224    -0.72400
V37         V  0.98019647  0.61025781  0.17986835     1.35200
V38         V  0.99251573  0.69569085  0.17533755     1.35200
C39         C  0.94343235  0.69238251  0.17670773     0.77100
C40         C  0.02975560  0.61723341  0.17867123     0.77100
C41         C  0.98834337  0.68153189  0.19846064     0.77000
C42         C  0.98381013  0.62080381  0.15690409     0.77000
O43         O  0.03345283  0.75319825  0.30445706    -0.72200
O44         O  0.96740614  0.80226222  0.30267285    -0.72400
O45         O  0.00040385  0.79130374  0.31925066    -0.72200
O46         O  0.00077901  0.76763775  0.28784336    -0.72200
O47         O  0.98946950  0.67442139  0.28978163    -0.72200
O48         O  0.98884078  0.69884496  0.32193001    -0.72200
O49         O  0.95694863  0.70871647  0.30503841    -0.72200
O50         O  0.02123578  0.66075779  0.30662966    -0.72400
V51         V  0.00031240  0.77681622  0.30361658     1.35200
V52         V  0.98939873  0.68749349  0.30581994     1.35200
C53         C  0.03830812  0.69756400  0.30559538     0.77100
C54         C  0.95093101  0.76280791  0.30358819     0.77100
C55         C  0.99431249  0.75036327  0.32599218     0.77000
C56         C  0.99515944  0.71784682  0.28335566     0.77000
O57         O  0.48462983  0.12021331  0.15824834    -0.72200
O58         O  0.48107588  0.16260613  0.18973681    -0.72400
O59         O  0.51432067  0.11655103  0.17623384    -0.72200
O60         O  0.45132038  0.17036719  0.17164635    -0.72200
O61         O  0.43702876  0.08300403  0.17646167    -0.72200
O62         O  0.50191205  0.02487157  0.17904143    -0.72200
O63         O  0.46957155  0.07085705  0.19314736    -0.72200
O64         O  0.46924471  0.03279913  0.16219582    -0.72400
V65         V  0.48249107  0.14073696  0.17400351     1.35200
V66         V  0.46960767  0.05456894  0.17759231     1.35200
C67         C  0.47763457  0.06829111  0.15493828     0.77100
C68         C  0.47562339  0.12212002  0.19685077     0.77100
C69         C  0.51913408  0.06251361  0.17851354     0.77000
C70         C  0.43338660  0.13755765  0.17363497     0.77000
O71         O  0.53020766  0.20722246  0.30275013    -0.72200
O72         O  0.46794121  0.27653196  0.29775154    -0.72400
O73         O  0.49814980  0.26717604  0.31540137    -0.72200
O74         O  0.50040790  0.21963926  0.28491538    -0.72200
O75         O  0.48291604  0.13457492  0.28877282    -0.72200
O76         O  0.48208969  0.18149118  0.32001596    -0.72200
O77         O  0.45209023  0.19042279  0.30227406    -0.72200
O78         O  0.51286694  0.12207693  0.30667748    -0.72400
V79         V  0.49890829  0.24094456  0.30028501     1.35200
V80         V  0.48289593  0.15873417  0.30435489     1.35200
C81         C  0.53190589  0.15219003  0.30561508     0.77100
C82         C  0.44934458  0.24432067  0.29923927     0.77100
C83         C  0.48965097  0.23353194  0.32292629     0.77000
C84         C  0.49151488  0.17039452  0.28150079     0.77000
O85         O  0.28290972  0.44362036  0.18103021    -0.72200
O86         O  0.22302397  0.52894494  0.18321255    -0.72400
O87         O  0.25492104  0.48283748  0.19799393    -0.72200
O88         O  0.25147344  0.49349340  0.16637835    -0.72200
O89         O  0.23001115  0.41171617  0.16537864    -0.72200
O90         O  0.23736917  0.39523656  0.19759911    -0.72200
O91         O  0.20466480  0.44229165  0.18368095    -0.72200
O92         O  0.26262998  0.36018126  0.17939795    -0.72400
V93         V  0.25278407  0.48552553  0.18215116     1.35200
V94         V  0.23414543  0.40383165  0.18150182     1.35200
C95         C  0.28268386  0.38657701  0.17973368     0.77100
C96         C  0.20363028  0.49894411  0.18398226     0.77100
C97         C  0.24663315  0.43836743  0.20329384     0.77000
C98         C  0.23939413  0.45683174  0.16045330     0.77000
O99         O  0.19955921  0.43007869  0.30974596    -0.72200
O100        O  0.26108317  0.35834918  0.30489168    -0.72400
O101        O  0.23251042  0.37214132  0.32271868    -0.72200
O102        O  0.22791450  0.41306529  0.29201855    -0.72200
O103        O  0.24899427  0.49431430  0.29506388    -0.72200
O104        O  0.24591102  0.46187108  0.32686237    -0.72200
O105        O  0.27768690  0.44235582  0.31045851    -0.72200
O106        O  0.21726429  0.51715029  0.31148897    -0.72400
V107        V  0.23051923  0.39497938  0.30745655     1.35200
V108        V  0.24707857  0.47750985  0.31093272     1.35200
C109        C  0.19806396  0.48703096  0.31079815     0.77100
C110        C  0.27994836  0.38872704  0.30705540     0.77100
C111        C  0.23993415  0.40930572  0.33005510     0.77000
C112        C  0.23848908  0.45872603  0.28815541     0.77000
O113        O  0.17731830  0.85067042  0.80632295    -0.72200
O114        O  0.24094647  0.78870558  0.80189573    -0.72400
O115        O  0.21038988  0.79425102  0.81938796    -0.72200
O116        O  0.20739817  0.84142634  0.78893811    -0.72200
O117        O  0.22441722  0.92720089  0.79304166    -0.72200
O118        O  0.22389949  0.88253227  0.82437525    -0.72200
O119        O  0.25518368  0.87534533  0.80749361    -0.72200
O120        O  0.19314297  0.93819147  0.81013436    -0.72400
V121        V  0.20927296  0.82037382  0.80426419     1.35200
V122        V  0.22378063  0.90420955  0.80868024     1.35200
C123        C  0.17461808  0.90622491  0.80870876     0.77100
C124        C  0.25892488  0.82247195  0.80404403     0.77100
C125        C  0.21760750  0.82940610  0.82711824     0.77000
C126        C  0.21595227  0.89090617  0.78565221     0.77000
O127        O  0.27264432  0.94461893  0.68016462    -0.72200
O128        O  0.21029905  0.01674585  0.68260156    -0.72400
O129        O  0.24170355  0.96693082  0.69699798    -0.72200
O130        O  0.24138604  0.99805360  0.66584921    -0.72200
O131        O  0.22322530  0.91297460  0.66243690    -0.72200
O132        O  0.22650524  0.87771236  0.69417998    -0.72200
O133        O  0.19452771  0.92757300  0.68031660    -0.72200
O134        O  0.25529514  0.85902276  0.67628431    -0.72400
V135        V  0.24129085  0.97981323  0.68133243     1.35200
V136        V  0.22532168  0.89589814  0.67833090     1.35200
C137        C  0.27436585  0.88887396  0.67771804     0.77100
C138        C  0.19182653  0.98306492  0.68216470     0.77100
C139        C  0.23366675  0.91846298  0.70102708     0.77000
C140        C  0.23144264  0.96285437  0.65883475     0.77000
O141        O  0.51566734  0.70906461  0.80240060    -0.72200
O142        O  0.45120301  0.76401177  0.79726757    -0.72400
O143        O  0.48041446  0.75368626  0.81522827    -0.72200
O144        O  0.48672578  0.72226271  0.78427750    -0.72200
O145        O  0.47144888  0.63270026  0.78626996    -0.72200
O146        O  0.46890935  0.66155488  0.81827211    -0.72200
O147        O  0.43851175  0.67310505  0.80061534    -0.72200
O148        O  0.50186747  0.61754388  0.80377643    -0.72400
V149        V  0.48328404  0.73545080  0.79984595     1.35200
V150        V  0.47049663  0.64788990  0.80222098     1.35200
C151        C  0.51956286  0.65307907  0.80368378     0.77100
C152        C  0.43385194  0.72703741  0.79811843     0.77100
C153        C  0.47371264  0.71402135  0.82209587     0.77000
C154        C  0.47952545  0.67358989  0.77984550     0.77000
O155        O  0.43843959  0.62295790  0.67397594    -0.72200
O156        O  0.50417864  0.57129660  0.67554105    -0.72400
O157        O  0.47146550  0.60799430  0.69033648    -0.72200
O158        O  0.47090002  0.58221610  0.65917192    -0.72200
O159        O  0.48401385  0.67296164  0.65610650    -0.72200
O160        O  0.48198212  0.70165529  0.68818880    -0.72200
O161        O  0.51526344  0.66465554  0.67354587    -0.72200
O162        O  0.45119298  0.71380930  0.67067502    -0.72400
V163        V  0.47144988  0.59793842  0.67467583     1.35200
V164        V  0.48286144  0.68656577  0.67216538     1.35200
C165        C  0.43384797  0.67810167  0.67200555     0.77100
C166        C  0.52090811  0.61034488  0.67509397     0.77100
C167        C  0.47684876  0.65810607  0.69470659     0.77000
C168        C  0.47759675  0.62160787  0.65226832     0.77000
O169        O  0.77380761  0.44369999  0.68348201    -0.72200
O170        O  0.71309588  0.52508851  0.68455432    -0.72400
O171        O  0.74310084  0.47577029  0.69978446    -0.72200
O172        O  0.74418487  0.49626832  0.66834840    -0.72200
O173        O  0.72288739  0.41502755  0.66584915    -0.72200
O174        O  0.72739032  0.38649316  0.69782035    -0.72200
O175        O  0.69555311  0.43738817  0.68386984    -0.72200
O176        O  0.75475336  0.36011914  0.67983776    -0.72400
V177        V  0.74327729  0.48351268  0.68400041     1.35200
V178        V  0.72558069  0.40120392  0.68185798     1.35200
C179        C  0.77440766  0.38742226  0.68136603     0.77100
C180        C  0.69392845  0.49391376  0.68462561     0.77100
C181        C  0.73522671  0.42831677  0.70426908     0.77000
C182        C  0.73265704  0.46189903  0.66173388     0.77000
O183        O  0.68170616  0.38823864  0.81050915    -0.72200
O184        O  0.74426089  0.32154593  0.80574620    -0.72400
O185        O  0.71497470  0.33218238  0.82352572    -0.72200
O186        O  0.71079256  0.37402768  0.79284934    -0.72200
O187        O  0.73061891  0.45693227  0.79615403    -0.72200
O188        O  0.72727871  0.42262033  0.82785316    -0.72200
O189        O  0.75962307  0.40671935  0.81144427    -0.72200
O190        O  0.69831673  0.47644048  0.81258536    -0.72400
V191        V  0.71316131  0.35556902  0.80827859     1.35200
V192        V  0.72859860  0.43918568  0.81197115     1.35200
C193        C  0.67949064  0.44489628  0.81186777     0.77100
C194        C  0.76268632  0.35385054  0.80778688     0.77100
C195        C  0.72144129  0.36982622  0.83097323     0.77000
C196        C  0.72110076  0.42037563  0.78911042     0.77000
O197        O  0.93402993  0.10191635  0.67866803    -0.72200
O198        O  0.99935875  0.04562672  0.68010199    -0.72400
O199        O  0.96720787  0.08578831  0.69489982    -0.72200
O200        O  0.96587625  0.05746105  0.66374711    -0.72200
O201        O  0.98046928  0.14655486  0.66049199    -0.72200
O202        O  0.97820782  0.17884351  0.69244927    -0.72200
O203        O  0.01110458  0.13839400  0.67804173    -0.72200
O204        O  0.94773387  0.19122843  0.67481556    -0.72400
V205        V  0.96680611  0.07443910  0.67926081     1.35200
V206        V  0.97907545  0.16205066  0.67648357     1.35200
C207        C  0.93002592  0.15718314  0.67649832     0.77100
C208        C  0.01637505  0.08393390  0.67963685     0.77100
C209        C  0.97291866  0.13607372  0.69911567     0.77000
C210        C  0.97354485  0.09536406  0.65676450     0.77000
O211        O  0.01507555  0.18682299  0.80582406    -0.72200
O212        O  0.95203978  0.25459368  0.80197817    -0.72400
O213        O  0.98239465  0.23913372  0.81950895    -0.72200
O214        O  0.98511742  0.20608978  0.78841900    -0.72200
O215        O  0.96833961  0.11853700  0.79081279    -0.72200
O216        O  0.96730143  0.15048803  0.82272240    -0.72200
O217        O  0.93710231  0.16587178  0.80525997    -0.72200
O218        O  0.99840082  0.09926799  0.80831952    -0.72400
V219        V  0.98340178  0.21998089  0.80401971     1.35200
V220        V  0.96816549  0.13523532  0.80673987     1.35200
C221        C  0.01721747  0.13044054  0.80751606     0.77100
C222        C  0.93376854  0.22054994  0.80294269     0.77100
C223        C  0.97417277  0.20166518  0.82645634     0.77000
C224        C  0.97690743  0.15793141  0.78420074     0.77000
O225        O  0.75489433  0.62763429  0.56060440    -0.72200
O226        O  0.68833409  0.58372849  0.55711420    -0.72400
O227        O  0.72291114  0.62645712  0.54373696    -0.72200
O228        O  0.72073440  0.58076433  0.57415575    -0.72200
O229        O  0.71074826  0.67144033  0.57923729    -0.72200
O230        O  0.71188191  0.71774291  0.54793234    -0.72200
O231        O  0.67867353  0.67493659  0.56201471    -0.72200
O232        O  0.74366422  0.71811214  0.56524518    -0.72400
V233        V  0.72149315  0.60634296  0.55905070     1.35200
V234        V  0.71145701  0.69377386  0.56354681     1.35200
C235        C  0.76041149  0.68163021  0.56327056     0.77100
C236        C  0.67219270  0.62323510  0.55871569     0.77100
C237        C  0.71791622  0.67901928  0.54053547     0.77000
C238        C  0.71549972  0.61722584  0.58193434     0.77000
O239        O  0.68741426  0.74918707  0.43333782    -0.72200
O240        O  0.75169668  0.80808808  0.43769199    -0.72400
O241        O  0.72229530  0.79316749  0.41994072    -0.72200
O242        O  0.71685631  0.76742239  0.45120494    -0.72200
O243        O  0.73129193  0.67697974  0.44945376    -0.72200
O244        O  0.73475461  0.70127316  0.41743651    -0.72200
O245        O  0.76459096  0.71667791  0.43514339    -0.72200
O246        O  0.70176019  0.65841095  0.43186495    -0.72400
V247        V  0.71974490  0.77766959  0.43549503     1.35200
V248        V  0.73280392  0.69012270  0.43348887     1.35200
C249        C  0.68386759  0.69282532  0.43216745     0.77100
C250        C  0.76911777  0.77149207  0.43706740     0.77100
C251        C  0.72974650  0.75270303  0.41335410     0.77000
C252        C  0.72347445  0.71886393  0.45576922     0.77000
O253        O  0.02439426  0.90678480  0.42776387    -0.72200
O254        O  0.96057062  0.84727136  0.43241864    -0.72400
O255        O  0.99051795  0.85186866  0.41480698    -0.72200
O256        O  0.99465253  0.89897253  0.44533658    -0.72200
O257        O  0.97644638  0.98311387  0.44150179    -0.72200
O258        O  0.97945369  0.94219922  0.41004569    -0.72200
O259        O  0.94682513  0.93288637  0.42630895    -0.72200
O260        O  0.00926147  0.99580779  0.42503698    -0.72400
V261        V  0.99231884  0.87778661  0.42997196     1.35200
V262        V  0.97837410  0.96201641  0.42580090     1.35200
C263        C  0.02751238  0.96262916  0.42587302     0.77100
C264        C  0.94279921  0.88066652  0.42997595     0.77100
C265        C  0.98460303  0.88851425  0.40716393     0.77000
C266        C  0.98505391  0.94697313  0.44877069     0.77000
O267        O  0.92222599  0.95042587  0.55465974    -0.72200
O268        O  0.98490328  0.02194841  0.55149686    -0.72400
O269        O  0.95149371  0.97589946  0.53735933    -0.72200
O270        O  0.95528245  0.00030709  0.56862814    -0.72200
O271        O  0.97219058  0.91314697  0.57102245    -0.72200
O272        O  0.96766602  0.88729083  0.53889259    -0.72200
O273        O  0.00033062  0.93246551  0.55317425    -0.72200
O274        O  0.93933567  0.86327251  0.55673093    -0.72400
V275        V  0.95371391  0.98532020  0.55307365     1.35200
V276        V  0.96943274  0.90060249  0.55494342     1.35200
C277        C  0.92033217  0.89384199  0.55622299     0.77100
C278        C  0.00330524  0.98816350  0.55171318     0.77100
C279        C  0.95951129  0.92918791  0.53265024     0.77000
C280        C  0.96502747  0.96294142  0.57517471     0.77000
O281        O  0.18964429  0.23400863  0.42911416    -0.72200
O282        O  0.25314811  0.29734468  0.43439903    -0.72400
O283        O  0.22425683  0.28550231  0.41639299    -0.72200
O284        O  0.21827726  0.24971137  0.44719543    -0.72200
O285        O  0.23311043  0.16029228  0.44454103    -0.72200
O286        O  0.23935416  0.19698580  0.41303655    -0.72200
O287        O  0.26714478  0.20723047  0.43155603    -0.72200
O288        O  0.20544948  0.14614748  0.42598668    -0.72400
V289        V  0.22154684  0.26489681  0.43169840     1.35200
V290        V  0.23590028  0.17937831  0.42882116     1.35200
C291        C  0.18696252  0.17825564  0.42680041     0.77100
C292        C  0.27099623  0.26190702  0.43385809     0.77100
C293        C  0.23344057  0.24899298  0.40951176     0.77000
C294        C  0.22480439  0.19986410  0.45123419     0.77000
O295        O  0.26102843  0.11937718  0.55592129    -0.72200
O296        O  0.19600412  0.05966757  0.55445314    -0.72400
O297        O  0.22735712  0.10462656  0.53971072    -0.72200
O298        O  0.22996358  0.07052763  0.57067066    -0.72200
O299        O  0.21431172  0.15747282  0.57469417    -0.72200
O300        O  0.21661963  0.19699827  0.54309985    -0.72200
O301        O  0.18369630  0.15158284  0.55698513    -0.72200
O302        O  0.24695090  0.20666798  0.56088952    -0.72400
V303        V  0.22838489  0.09022623  0.55528477     1.35200
V304        V  0.21568472  0.17649806  0.55886795     1.35200
C305        C  0.26482816  0.17406193  0.55877175     0.77100
C306        C  0.17875758  0.09695414  0.55511108     0.77100
C307        C  0.22172791  0.15586634  0.53600294     0.77000
C308        C  0.22203939  0.10648304  0.57799571     0.77000
O309        O  0.41893334  0.46745669  0.55023971    -0.72200
O310        O  0.47852688  0.55391572  0.54766272    -0.72400
O311        O  0.44783024  0.49942091  0.53313701    -0.72200
O312        O  0.44925110  0.52474165  0.56452435    -0.72200
O313        O  0.47086433  0.44431635  0.56686262    -0.72200
O314        O  0.46555453  0.41291868  0.53510612    -0.72200
O315        O  0.49725843  0.46816028  0.54863344    -0.72200
O316        O  0.43914752  0.38555069  0.55338478    -0.72400
V317        V  0.44892575  0.50968658  0.54891192     1.35200
V318        V  0.46773561  0.42920486  0.55097105     1.35200
C319        C  0.41909841  0.41140158  0.55248511     0.77100
C320        C  0.49808506  0.52466116  0.54759224     0.77100
C321        C  0.45659294  0.45277851  0.52867268     0.77000
C322        C  0.46112649  0.49105421  0.57102130     0.77000
O323        O  0.52432275  0.41636465  0.42510586    -0.72200
O324        O  0.46217555  0.34340437  0.42737033    -0.72400
O325        O  0.49460969  0.35639555  0.41081430    -0.72200
O326        O  0.49233824  0.40066035  0.44150040    -0.72200
O327        O  0.47200945  0.48108856  0.43724001    -0.72200
O328        O  0.48130862  0.44459582  0.40592944    -0.72200
O329        O  0.44656087  0.42627993  0.42093519    -0.72200
O330        O  0.50690585  0.50257129  0.42222838    -0.72400
V331        V  0.49309904  0.38068833  0.42606195     1.35200
V332        V  0.47710327  0.46219817  0.42163885     1.35200
C333        C  0.52594892  0.47307031  0.42382308     0.77100
C334        C  0.44371519  0.37332981  0.42451623     0.77100
C335        C  0.48862715  0.39251228  0.40308861     0.77000
C336        C  0.48086368  0.44647004  0.44469132     0.77000
O337        O  0.17894579  0.66460374  0.92915546    -0.72200
O338        O  0.24265359  0.73020667  0.93179926    -0.72400
O339        O  0.21061182  0.71539405  0.91493008    -0.72200
O340        O  0.21065900  0.68279100  0.94606508    -0.72200
O341        O  0.22698817  0.59531439  0.94318550    -0.72200
O342        O  0.22447905  0.62619810  0.91119262    -0.72200
O343        O  0.25678529  0.64138182  0.92791896    -0.72200
O344        O  0.19462929  0.57612565  0.92650261    -0.72400
V345        V  0.21096472  0.69650586  0.93039458     1.35200
V346        V  0.22533458  0.61137203  0.92723373     1.35200
C347        C  0.17618713  0.60812549  0.92773660     0.77100
C348        C  0.26061541  0.69598961  0.93031155     0.77100
C349        C  0.21770110  0.67770560  0.90770224     0.77000
C350        C  0.21934470  0.63491657  0.95006860     0.77000
O351        O  0.26812398  0.57701008  0.05708519    -0.72200
O352        O  0.20410065  0.51554237  0.05351930    -0.72400
O353        O  0.23742017  0.55975800  0.03970363    -0.72200
O354        O  0.23490845  0.52964836  0.07096823    -0.72200
O355        O  0.21948402  0.61804948  0.07397393    -0.72200
O356        O  0.22472312  0.65130593  0.04220807    -0.72200
O357        O  0.19073652  0.60695508  0.05555501    -0.72200
O358        O  0.25324513  0.66551065  0.06063642    -0.72400
V359        V  0.23592189  0.54725924  0.05540262     1.35200
V360        V  0.22235179  0.63373901  0.05806835     1.35200
C361        C  0.27138288  0.63234402  0.05951281     0.77100
C362        C  0.18659154  0.55201116  0.05355419     0.77100
C363        C  0.23127166  0.60963681  0.03550137     0.77000
C364        C  0.22648656  0.56754162  0.07783942     0.77000
O365        O  0.67161812  0.22904676  0.93218705    -0.72200
O366        O  0.73843709  0.26628982  0.93635831    -0.72400
O367        O  0.70765667  0.26660916  0.91888250    -0.72200
O368        O  0.70234309  0.23196836  0.94977889    -0.72200
O369        O  0.71365869  0.13954082  0.94685740    -0.72200
O370        O  0.71442852  0.17223362  0.91504374    -0.72200
O371        O  0.74678611  0.17349777  0.93196397    -0.72200
O372        O  0.68132301  0.13475304  0.92991361    -0.72400
V373        V  0.70513261  0.24669182  0.93422883     1.35200
V374        V  0.71381458  0.15675839  0.93099572     1.35200
C375        C  0.66535296  0.17452672  0.93059453     0.77100
C376        C  0.75400279  0.22552538  0.93468188     0.77100
C377        C  0.71202226  0.22626270  0.91166896     0.77000
C378        C  0.70772206  0.18100587  0.95372036     0.77000
O379        O  0.71590737  0.15243376  0.07739841    -0.72200
O380        O  0.71473662  0.18951715  0.04566992    -0.72400
O381        O  0.68363306  0.14456610  0.06039397    -0.72200
O382        O  0.74689754  0.20123275  0.06271232    -0.72200
O383        O  0.76089328  0.11207415  0.05900748    -0.72200
O384        O  0.69598660  0.05411369  0.05642881    -0.72200
O385        O  0.72816115  0.09936841  0.04229993    -0.72200
O386        O  0.72870742  0.06277078  0.07316764    -0.72400
V387        V  0.71562703  0.17023889  0.06149930     1.35200
V388        V  0.72826981  0.08387339  0.05783874     1.35200
C389        C  0.72216644  0.09999111  0.08058009     0.77100
C390        C  0.72055161  0.14895342  0.03858813     0.77100
C391        C  0.67876691  0.09088881  0.05768968     0.77000
C392        C  0.76473066  0.16753928  0.06119620     0.77000
O393        O  0.51274498  0.87913928  0.92444475    -0.72200
O394        O  0.45073993  0.80533020  0.92768586    -0.72400
O395        O  0.48153550  0.82072179  0.91060590    -0.72200
O396        O  0.48259924  0.86037353  0.94148367    -0.72200
O397        O  0.46460010  0.94538269  0.93817922    -0.72200
O398        O  0.46490832  0.90641852  0.90648954    -0.72200
O399        O  0.43448034  0.89142856  0.92350447    -0.72200
O400        O  0.49497842  0.96417505  0.92090480    -0.72400
V401        V  0.48158963  0.84304231  0.92595370     1.35200
V402        V  0.46515692  0.92529527  0.92234000     1.35200
C403        C  0.51416957  0.93513869  0.92228231     0.77100
C404        C  0.43198807  0.83675300  0.92606381     0.77100
C405        C  0.47289063  0.85557099  0.90325329     0.77000
C406        C  0.47360467  0.90843878  0.94521958     0.77000
O407        O  0.42667926  0.92049609  0.05265667    -0.72200
O408        O  0.48708777  0.00217824  0.04989621    -0.72400
O409        O  0.45514038  0.95327618  0.03540765    -0.72200
O410        O  0.45839093  0.97241547  0.06695208    -0.72200
O411        O  0.47824662  0.88883209  0.06869443    -0.72200
O412        O  0.47254326  0.86598177  0.03652089    -0.72200
O413        O  0.50481133  0.91498110  0.05055507    -0.72200
O414        O  0.44591275  0.83610200  0.05465364    -0.72400
V415        V  0.45710202  0.96030817  0.05124492     1.35200
V416        V  0.47492258  0.87797334  0.05259178     1.35200
C417        C  0.42623726  0.86392084  0.05433018     0.77100
C418        C  0.50623554  0.97140653  0.04961018     0.77100
C419        C  0.46368572  0.90775836  0.03046371     0.77000
C420        C  0.46947982  0.93591549  0.07322853     0.77000
O421        O  0.01287089  0.33641232  0.93046565    -0.72200
O422        O  0.94836446  0.27465921  0.93188831    -0.72400
O423        O  0.98079562  0.29080893  0.91549137    -0.72200
O424        O  0.98085530  0.31640164  0.94680652    -0.72200
O425        O  0.96663368  0.40677448  0.94468887    -0.72200
O426        O  0.96712703  0.38098270  0.91248435    -0.72200
O427        O  0.93544116  0.36571205  0.92902763    -0.72200
O428        O  0.99814861  0.42624035  0.92816138    -0.72400
V429        V  0.98049377  0.30634647  0.93108488     1.35200
V430        V  0.96716092  0.39320769  0.92861519     1.35200
C431        C  0.01620262  0.39286852  0.92937447     0.77100
C432        C  0.93088284  0.31087720  0.93070894     0.77100
C433        C  0.97374850  0.33012975  0.90858313     0.77000
C434        C  0.97357447  0.36470223  0.95121177     0.77000
O435        O  0.92998448  0.42762288  0.05715355    -0.72200
O436        O  0.99409775  0.48714500  0.05287068    -0.72400
O437        O  0.95999725  0.43674103  0.03978371    -0.72200
O438        O  0.96369720  0.48198409  0.07027735    -0.72200
O439        O  0.97798052  0.39441383  0.07490439    -0.72200
O440        O  0.97460558  0.34820385  0.04350998    -0.72200
O441        O  0.00750463  0.39803286  0.05711098    -0.72200
O442        O  0.94499023  0.34016867  0.06135696    -0.72400
V443        V  0.96218473  0.45663951  0.05514419     1.35200
V444        V  0.97590433  0.37184901  0.05917928     1.35200
C445        C  0.92677000  0.37268517  0.05980970     0.77100
C446        C  0.01167567  0.45120981  0.05400789     0.77100
C447        C  0.96697115  0.38609538  0.03629564     0.77000
C448        C  0.97183358  0.44751252  0.07780465     0.77000
C449        C  0.96810618  0.42487500  0.98124487    -0.11200
C450        C  0.97185544  0.37186777  0.98760522     0.05900
C451        C  0.97652643  0.31783878  0.98184060    -0.10000
C452        C  0.97722159  0.31647721  0.97008896    -0.11600
C453        C  0.97311107  0.36899978  0.96370302    -0.01400
C454        C  0.96860812  0.42339060  0.96939798    -0.10500
C455        C  0.97005469  0.37214886  0.00015544     0.05900
H456        H  0.97906092  0.27602887  0.98639056     0.07900
H457        H  0.98062428  0.27357491  0.96599182     0.11300
H458        H  0.96555433  0.46459284  0.96472025     0.11600
H459        H  0.96484497  0.46759904  0.98542271     0.07900
C460        C  0.98499440  0.33550985  0.00695093    -0.11200
C461        C  0.98321992  0.33677193  0.01876707    -0.10500
C462        C  0.96661328  0.37502359  0.02397603    -0.01400
C463        C  0.95126802  0.41004117  0.01717016    -0.11600
C464        C  0.95290303  0.40849903  0.00544555    -0.10000
H465        H  0.99854840  0.30721270  0.00316517     0.07900
H466        H  0.99550746  0.31008306  0.02381513     0.11600
H467        H  0.93819451  0.43984709  0.02094790     0.11300
H468        H  0.94066154  0.43594205  0.00052431     0.07900
C469        C  0.48932266  0.88866927  0.97602374    -0.11200
C470        C  0.46979160  0.91578436  0.98145883     0.05900
C471        C  0.45260461  0.94634940  0.97476434    -0.10000
C472        C  0.45450515  0.94774890  0.96295327    -0.11600
C473        C  0.47343408  0.91793196  0.95759650    -0.01400
C474        C  0.49100896  0.88937656  0.96427512    -0.10500
C475        C  0.46742933  0.91187252  0.99401350     0.05900
H476        H  0.43716398  0.96734756  0.97859366     0.07900
H477        H  0.44054343  0.96932009  0.95800074     0.11300
H478        H  0.50590974  0.86626477  0.96036692     0.11600
H479        H  0.50330529  0.86635415  0.98083223     0.07900
C480        C  0.47531712  0.86053813  0.00002257    -0.11200
C481        C  0.47374303  0.85805916  0.01183971    -0.10500
C482        C  0.46400643  0.90656526  0.01791134    -0.01400
C483        C  0.45572325  0.95718336  0.01188389    -0.11600
C484        C  0.45751012  0.95993113  0.00014819    -0.10000
H485        H  0.48265993  0.82202310  0.99560391     0.07900
H486        H  0.48033140  0.81853307  0.01621652     0.11600
H487        H  0.44829656  0.99574436  0.01626931     0.11300
H488        H  0.45163565  0.00060673  0.99593125     0.07900
C489        C  0.57189629  0.98240871  0.04364184    -0.11200
C490        C  0.57871559  0.03271611  0.05016584     0.05900
C491        C  0.56074441  0.06800998  0.05525737    -0.16400
C492        C  0.53656266  0.05108970  0.05436250    -0.11600
C493        C  0.53015389  0.99839273  0.04847682    -0.01400
C494        C  0.54789236  0.96524895  0.04286763    -0.10500
C495        C  0.60451232  0.04684304  0.05195010     0.05900
H496        H  0.56544747  0.10692941  0.06039349     0.07900
H497        H  0.52315594  0.07674086  0.05886738     0.11300
H498        H  0.54324667  0.92454494  0.03821244     0.11600
H499        H  0.58518742  0.95537653  0.03935228     0.07900
C500        C  0.62148972  0.00035784  0.05345491    -0.11200
C501        C  0.64579302  0.01397237  0.05525475    -0.10500
C502        C  0.65341112  0.07426892  0.05573151    -0.01400
C503        C  0.63643712  0.12052129  0.05419396    -0.11600
C504        C  0.61232826  0.10699025  0.05228292    -0.10000
H505        H  0.61593976  0.95346750  0.05341806     0.07900
H506        H  0.65850468  0.97758854  0.05642765     0.11600
H507        H  0.64182180  0.16755922  0.05434888     0.11300
H508        H  0.59984501  0.14371440  0.05095089     0.07900
C509        C  0.87856276  0.25618955  0.06528803    -0.11200
C510        C  0.85777919  0.28498089  0.06133089     0.05900
C511        C  0.85962458  0.34453231  0.05725575    -0.10000
C512        C  0.88188086  0.37421042  0.05701231    -0.11600
C513        C  0.90268527  0.34483929  0.06082547    -0.01400
C514        C  0.90070374  0.28569387  0.06504174    -0.10500
C515        C  0.83423837  0.25325693  0.06160844     0.05900
H516        H  0.84392656  0.36774145  0.05404474     0.07900
H517        H  0.88288806  0.41946562  0.05361877     0.11300
H518        H  0.91637841  0.26174766  0.06808663     0.11600
H519        H  0.87769309  0.21087746  0.06866481     0.07900
C520        C  0.83211236  0.19159645  0.05870653    -0.11200
C521        C  0.80967346  0.16259469  0.05879244    -0.10500
C522        C  0.78903306  0.19478089  0.06180092    -0.01400
C523        C  0.79138355  0.25593022  0.06495786    -0.11600
C524        C  0.81363870  0.28471432  0.06485196    -0.10000
H525        H  0.84769727  0.16619397  0.05611763     0.07900
H526        H  0.80840675  0.11556624  0.05629567     0.11600
H527        H  0.77589701  0.28211018  0.06741687     0.11300
H528        H  0.81472519  0.33173972  0.06737142     0.07900
C529        C  0.86358842  0.32111110  0.92900673    -0.11200
C530        C  0.85618416  0.26836836  0.93444981     0.05900
C531        C  0.87369307  0.22673479  0.93810174    -0.10000
C532        C  0.89820219  0.23876939  0.93658330    -0.11600
C533        C  0.90544101  0.29256547  0.93140238    -0.01400
C534        C  0.88783193  0.33303089  0.92750849    -0.10500
C535        C  0.83016177  0.25648498  0.93576701     0.05900
H536        H  0.86845239  0.18555060  0.94231473     0.07900
H537        H  0.91141279  0.20707453  0.93972102     0.11300
H538        H  0.89278958  0.37465758  0.92336008     0.11600
H539        H  0.85058703  0.35313085  0.92578751     0.07900
C540        C  0.81422584  0.30369070  0.93842076    -0.11200
C541        C  0.78939126  0.29389289  0.93832963    -0.10500
C542        C  0.78010660  0.23667264  0.93562619    -0.01400
C543        C  0.79612377  0.18906215  0.93342962    -0.11600
C544        C  0.82083525  0.19886076  0.93349386    -0.10000
H545        H  0.82097117  0.34846763  0.94038397     0.07900
H546        H  0.77749849  0.33119742  0.94015530     0.11600
H547        H  0.78956451  0.14423617  0.93136176     0.11300
H548        H  0.83257833  0.16182830  0.93130102     0.07900
C549        C  0.61031427  0.08523822  0.93671475    -0.11200
C550        C  0.59910390  0.08316732  0.92604358     0.05900
C551        C  0.60800774  0.11996785  0.91737077    -0.10000
C552        C  0.62858578  0.15534651  0.91917269    -0.11600
C553        C  0.64031461  0.15491355  0.92969213    -0.01400
C554        C  0.63080417  0.12058273  0.93849731    -0.10500
C555        C  0.57837978  0.04217040  0.92400047     0.05900
H556        H  0.59978727  0.11901735  0.90904756     0.07900
H557        H  0.63622335  0.17985980  0.91217174     0.11300
H558        H  0.64005495  0.11849423  0.94657835     0.11600
H559        H  0.60358807  0.05826440  0.94360396     0.07900
C560        C  0.57835093  0.98292467  0.92828493    -0.11200
C561        C  0.55795721  0.94610545  0.92715688    -0.10500
C562        C  0.53721840  0.96821218  0.92181471    -0.01400
C563        C  0.53773548  0.02630021  0.91705055    -0.11600
C564        C  0.55809870  0.06277123  0.91809840    -0.10000
H565        H  0.59396628  0.96551430  0.93269168     0.07900
H566        H  0.55803652  0.90161001  0.93090772     0.11600
H567        H  0.52203219  0.04449787  0.91282592     0.11300
H568        H  0.55758647  0.10810131  0.91471712     0.07900
C569        C  0.72167105  0.12144164  0.98300978    -0.11200
C570        C  0.71098837  0.16575760  0.98991715     0.05900
C571        C  0.69814752  0.21262975  0.98472743    -0.10000
C572        C  0.69656768  0.21610887  0.97298583    -0.11600
C573        C  0.70760536  0.17255822  0.96609961    -0.01400
C574        C  0.71987221  0.12462854  0.97122252    -0.10500
C575        C  0.71309483  0.16289163  0.00246017     0.05900
H576        H  0.68921513  0.24667870  0.98973197     0.07900
H577        H  0.68683688  0.25349326  0.96928558     0.11300
H578        H  0.72874119  0.09081463  0.96613066     0.11600
H579        H  0.73198749  0.08504853  0.98668978     0.07900
C580        C  0.71309992  0.10674233  0.00787724    -0.11200
C581        C  0.71555582  0.10323538  0.01955958    -0.10500
C582        C  0.71773239  0.15573574  0.02623165    -0.01400
C583        C  0.71715567  0.21220256  0.02094420    -0.11600
C584        C  0.71505883  0.21574985  0.00913965    -0.10000
H585        H  0.71094917  0.06522298  0.00310699     0.07900
H586        H  0.71547417  0.05894968  0.02340259     0.11600
H587        H  0.71880261  0.25329055  0.02588878     0.11300
H588        H  0.71538285  0.25984208  0.00524430     0.07900
C589        C  0.06963058  0.54007830  0.05189444    -0.11200
C590        C  0.08608787  0.49362123  0.04941040     0.05900
C591        C  0.07731039  0.43496204  0.04756407    -0.10000
C592        C  0.05299154  0.42233309  0.04876514    -0.11600
C593        C  0.03672452  0.46812736  0.05167210    -0.01400
C594        C  0.04508677  0.52747747  0.05293118    -0.10500
C595        C  0.11236601  0.50551522  0.04932932     0.05900
H596        H  0.08927353  0.39847696  0.04533231     0.07900
H597        H  0.04692167  0.37620332  0.04754827     0.11300
H598        H  0.03288556  0.56341140  0.05519816     0.11600
H599        H  0.07579019  0.58575304  0.05349187     0.07900
C600        C  0.12123446  0.56104422  0.04550415    -0.11200
C601        C  0.14557400  0.57479085  0.04655220    -0.10500
C602        C  0.16168635  0.53300784  0.05126722    -0.01400
C603        C  0.15326305  0.47606831  0.05446559    -0.11600
C604        C  0.12874702  0.46259283  0.05360175    -0.10000
H605        H  0.10931367  0.59440310  0.04187661     0.07900
H606        H  0.15177667  0.61876455  0.04384199     0.11600
H607        H  0.16538041  0.44331026  0.05815343     0.11300
H608        H  0.12254427  0.41953740  0.05674471     0.07900
C609        C  0.36018863  0.82401128  0.05697986    -0.11200
C610        C  0.36131251  0.76124516  0.05881435     0.05900
C611        C  0.38383852  0.73335465  0.05933448    -0.10000
C612        C  0.40474237  0.76709950  0.05791753    -0.11600
C613        C  0.40368915  0.82967597  0.05593924    -0.01400
C614        C  0.38119872  0.85793859  0.05555044    -0.10500
C615        C  0.33907844  0.72473435  0.05994273     0.05900
H616        H  0.38532453  0.68537449  0.06090514     0.07900
H617        H  0.42180371  0.74388491  0.05835367     0.11300
H618        H  0.37983819  0.90601081  0.05405599     0.11600
H619        H  0.34303265  0.84668815  0.05641536     0.07900
C620        C  0.31959379  0.74734601  0.06603931    -0.11200
C621        C  0.29801362  0.71536842  0.06635732    -0.10500
C622        C  0.29544159  0.65989602  0.06063431    -0.01400
C623        C  0.31524790  0.63554856  0.05502832    -0.11600
C624        C  0.33688282  0.66781785  0.05465235    -0.10000
H625        H  0.32091197  0.79028656  0.07042036     0.07900
H626        H  0.28306301  0.73493289  0.07084621     0.11600
H627        H  0.31364995  0.59317826  0.05047362     0.11300
H628        H  0.35156286  0.64936666  0.04982768     0.07900
C629        C  0.32833654  0.69370235  0.93033451    -0.11200
C630        C  0.33416106  0.75507518  0.93136253     0.05900
C631        C  0.31549218  0.79725518  0.93275066    -0.10000
C632        C  0.29145611  0.77849450  0.93267457    -0.11600
C633        C  0.28572454  0.71726517  0.93121739    -0.01400
C634        C  0.30445157  0.67504671  0.93027818    -0.10500
C635        C  0.35945404  0.77510605  0.93018006     0.05900
H636        H  0.31946686  0.84487495  0.93375330     0.07900
H637        H  0.27741558  0.81186716  0.93351936     0.11300
H638        H  0.30067544  0.62733147  0.92923493     0.11600
H639        H  0.34218727  0.66016792  0.92912391     0.07900
C640        C  0.37864348  0.74137369  0.93473882    -0.11200
C641        C  0.40246668  0.75991098  0.93318599    -0.10500
C642        C  0.40740103  0.81262690  0.92712144    -0.01400
C643        C  0.38821718  0.84566455  0.92246438    -0.11600
C644        C  0.36459575  0.82708998  0.92394502    -0.10000
H645        H  0.37522581  0.70115197  0.93963074     0.07900
H646        H  0.41691613  0.73397503  0.93693033     0.11600
H647        H  0.39144692  0.88627102  0.91764289     0.11300
H648        H  0.35035004  0.85310957  0.92005008     0.07900
C649        C  0.12946452  0.48567006  0.93067524    -0.11200
C650        C  0.10793141  0.51631059  0.92848451     0.05900
C651        C  0.10896566  0.57860762  0.92602620    -0.10000
C652        C  0.13103494  0.60931209  0.92583250    -0.11600
C653        C  0.15246120  0.57803086  0.92790757    -0.01400
C654        C  0.15138528  0.51596196  0.93029923    -0.10500
C655        C  0.08460123  0.48330123  0.92894559     0.05900
H656        H  0.09275765  0.60357415  0.92412941     0.07900
H657        H  0.13137825  0.65706513  0.92391895     0.11300
H658        H  0.16759133  0.49069728  0.93209205     0.11600
H659        H  0.12943265  0.43830137  0.93287638     0.07900
C660        C  0.08267037  0.42239138  0.92544720    -0.11200
C661        C  0.06067333  0.39160792  0.92592265    -0.10500
C662        C  0.04014687  0.42154281  0.92969928    -0.01400
C663        C  0.04212722  0.48191396  0.93333973    -0.11600
C664        C  0.06406803  0.51225674  0.93304699    -0.10000
H665        H  0.09803564  0.39877189  0.92210273     0.07900
H666        H  0.05954030  0.34527714  0.92299681     0.11600
H667        H  0.02658224  0.50588561  0.93643867     0.11300
H668        H  0.06492256  0.55836052  0.93610465     0.07900
C669        C  0.21057685  0.66637662  0.98123930    -0.11200
C670        C  0.22626920  0.62512640  0.98642069     0.05900
C671        C  0.23907846  0.58492172  0.97942265    -0.10000
C672        C  0.23628362  0.58617453  0.96762901    -0.11600
C673        C  0.22088982  0.62821245  0.96253018    -0.01400
C674        C  0.20803558  0.66808811  0.96949360    -0.10500
C675        C  0.22864269  0.62291961  0.99903795     0.05900
H676        H  0.25166225  0.55308117  0.98301850     0.07900
H677        H  0.24667381  0.55546418  0.96249710     0.11300
H678        H  0.19595173  0.70105292  0.96584840     0.11600
H679        H  0.19994356  0.69708115  0.98624765     0.07900
C680        C  0.22612071  0.67521736  0.00581508    -0.11200
C681        C  0.22715963  0.67179854  0.01766682    -0.10500
C682        C  0.23109834  0.61617870  0.02300233    -0.01400
C683        C  0.23410564  0.56442112  0.01622506    -0.11600
C684        C  0.23273458  0.56763180  0.00447343    -0.10000
H685        H  0.22337665  0.71893829  0.00198330     0.07900
H686        H  0.22484779  0.71250042  0.02263504     0.11600
H687        H  0.23695535  0.52059731  0.02001696     0.11300
H688        H  0.23423291  0.52611584  0.99968311     0.07900
C689        C  0.45046565  0.49540405  0.49795034    -0.11200
C690        C  0.46325600  0.44928048  0.49255280     0.05900
C691        C  0.47215946  0.40109523  0.49909184    -0.10000
C692        C  0.46923914  0.40054055  0.51081845    -0.11600
C693        C  0.45722791  0.44797404  0.51621837    -0.01400
C694        C  0.44744071  0.49467006  0.50961884    -0.10500
C695        C  0.46812431  0.45278888  0.48024858     0.05900
H696        H  0.48166392  0.36411883  0.49516052     0.07900
H697        H  0.47693080  0.36395223  0.51567238     0.11300
H698        H  0.43808729  0.53202668  0.51351433     0.11600
H699        H  0.44356986  0.53342728  0.49322828     0.07900
C700        C  0.45084412  0.47554140  0.47261356    -0.11200
C701        C  0.45549087  0.47743746  0.46101792    -0.10500
C702        C  0.47735826  0.45595665  0.45687121    -0.01400
C703        C  0.49484335  0.43499370  0.46450064    -0.11600
C704        C  0.49037093  0.43387057  0.47605285    -0.10000
H705        H  0.43344276  0.49005472  0.47554793     0.07900
H706        H  0.44157467  0.49268004  0.45525960     0.11600
H707        H  0.51187296  0.41820913  0.46148304     0.11300
H708        H  0.50433101  0.41775563  0.48169398     0.07900
C709        C  0.37756633  0.27883132  0.55799025    -0.11200
C710        C  0.35478343  0.30478657  0.55670716     0.05900
C711        C  0.35323107  0.36676588  0.55413566    -0.10000
C712        C  0.37400643  0.40179689  0.55280159    -0.11600
C713        C  0.39678326  0.37564152  0.55403062    -0.01400
C714        C  0.39828760  0.31380028  0.55669746    -0.10500
C715        C  0.33266641  0.26768032  0.55807735     0.05900
H716        H  0.33591289  0.38799637  0.55297806     0.07900
H717        H  0.37223753  0.44918211  0.55073844     0.11300
H718        H  0.41555265  0.29217229  0.55777245     0.11600
H719        H  0.37937520  0.23153974  0.56012046     0.07900
C720        C  0.33069686  0.20905376  0.55343416    -0.11200
C721        C  0.30902340  0.17656355  0.55405815    -0.10500
C722        C  0.28903513  0.20216447  0.55936410    -0.01400
C723        C  0.29153747  0.25940672  0.56448019    -0.11600
C724        C  0.31299696  0.29165848  0.56383464    -0.10000
H725        H  0.34558440  0.18935022  0.54893728     0.07900
H726        H  0.30761605  0.13271666  0.55000880     0.11600
H727        H  0.27660496  0.28026853  0.56876678     0.11300
H728        H  0.31409705  0.33592290  0.56774472     0.07900
C729        C  0.37643161  0.36495767  0.42239469    -0.11200
C730        C  0.37080880  0.32421199  0.43101943     0.05900
C731        C  0.38971037  0.29474072  0.43674689    -0.10000
C732        C  0.41366326  0.30748830  0.43414901    -0.11600
C733        C  0.41908243  0.35032189  0.42587296    -0.01400
C734        C  0.40024563  0.37806867  0.41989949    -0.10500
C735        C  0.34527602  0.31108542  0.43362031     0.05900
H736        H  0.38603786  0.26318667  0.44346362     0.07900
H737        H  0.42787889  0.28616425  0.43897965     0.11300
H738        H  0.40393585  0.41113702  0.41343143     0.11600
H739        H  0.36241216  0.38690583  0.41754469     0.07900
C740        C  0.32756357  0.35634501  0.43278819    -0.11200
C741        C  0.30315273  0.34172276  0.43361379    -0.10500
C742        C  0.29614618  0.28170024  0.43533414    -0.01400
C743        C  0.31391250  0.23757018  0.43704628    -0.11600
C744        C  0.33814374  0.25198015  0.43615237    -0.10000
H745        H  0.33252549  0.40273615  0.43113872     0.07900
H746        H  0.28982599  0.37656815  0.43230829     0.11600
H747        H  0.30904848  0.19089144  0.43851484     0.11300
H748        H  0.35115405  0.21592875  0.43680512     0.07900
C749        C  0.23634665  0.14185329  0.48083342    -0.11200
C750        C  0.22228561  0.18152340  0.48734036     0.05900
C751        C  0.20842924  0.22520766  0.48177401    -0.10000
C752        C  0.20886602  0.22973387  0.47003143    -0.11600
C753        C  0.22306759  0.19049923  0.46354508    -0.01400
C754        C  0.23663655  0.14610862  0.46904563    -0.10500
C755        C  0.22168979  0.17640883  0.49985347     0.05900
H756        H  0.19706524  0.25562926  0.48648522     0.07900
H757        H  0.19811642  0.26435386  0.46601883     0.11300
H758        H  0.24796422  0.11586543  0.46427246     0.11600
H759        H  0.24749853  0.10815712  0.48486872     0.07900
C760        C  0.22190922  0.11922124  0.50486002    -0.11200
C761        C  0.22169598  0.11346244  0.51654924    -0.10500
C762        C  0.22108639  0.16468584  0.52362067    -0.01400
C763        C  0.22036245  0.22212498  0.51868800    -0.11600
C764        C  0.22073758  0.22795571  0.50688884    -0.10000
H765        H  0.22201689  0.07861347  0.49973186     0.07900
H766        H  0.22193816  0.06838810  0.52005410     0.11600
H767        H  0.21993614  0.26230839  0.52392600     0.11300
H768        H  0.22071514  0.27277611  0.50328347     0.07900
C769        C  0.12042533  0.00732817  0.55445393    -0.11200
C770        C  0.10362337  0.05310035  0.55197419     0.05900
C771        C  0.11198996  0.11196019  0.55019462    -0.10000
C772        C  0.13641757  0.12511833  0.55104048    -0.11600
C773        C  0.15321702  0.07979059  0.55365420    -0.01400
C774        C  0.14504918  0.02052537  0.55524152    -0.10500
C775        C  0.07748565  0.03966924  0.55115774     0.05900
H776        H  0.09964907  0.14790623  0.54805142     0.07900
H777        H  0.14217211  0.17121509  0.54963788     0.11300
H778        H  0.15756838  0.98489756  0.55734132     0.11600
H779        H  0.11448484  0.96153297  0.55598870     0.07900
C780        C  0.06952976  0.98606065  0.54599238    -0.11200
C781        C  0.04517403  0.97161012  0.54567016    -0.10500
C782        C  0.02809884  0.01047508  0.55044213    -0.01400
C783        C  0.03574833  0.06549103  0.55516154    -0.11600
C784        C  0.06029874  0.07990851  0.55555317    -0.10000
H785        H  0.08217883  0.95489746  0.54228221     0.07900
H786        H  0.03968939  0.92898203  0.54191038     0.11600
H787        H  0.02295606  0.09570304  0.55903489     0.11300
H788        H  0.06589678  0.12150354  0.55965114     0.07900
C789        C  0.07516151  0.07989375  0.42044080    -0.11200
C790        C  0.09603628  0.05170624  0.42443379     0.05900
C791        C  0.09458313  0.99158776  0.42824756    -0.10000
C792        C  0.07246651  0.96117649  0.42840540    -0.11600
C793        C  0.05150119  0.99053868  0.42478182    -0.01400
C794        C  0.05320430  0.04975858  0.42061837    -0.10500
C795        C  0.11911053  0.08543694  0.42467152     0.05900
H796        H  0.11040862  0.96872921  0.43141496     0.07900
H797        H  0.07165224  0.91563297  0.43167082     0.11300
H798        H  0.03741264  0.07340617  0.41761588     0.11600
H799        H  0.07578208  0.12549236  0.41719373     0.07900
C800        C  0.14040186  0.05671418  0.42153683    -0.11200
C801        C  0.16215014  0.08795904  0.42189210    -0.10500
C802        C  0.16322738  0.14876319  0.42542624    -0.01400
C803        C  0.14189786  0.17807777  0.42836055    -0.11600
C804        C  0.12002000  0.14665856  0.42798938    -0.10000
H805        H  0.14024596  0.01004592  0.41875786     0.07900
H806        H  0.17825533  0.06396014  0.41952803     0.11600
H807        H  0.14220705  0.22461165  0.43121110     0.11300
H808        H  0.10388294  0.16986029  0.43055957     0.07900
C809        C  0.97664666  0.88797380  0.50264004    -0.11200
C810        C  0.96805693  0.93856939  0.49662779     0.05900
C811        C  0.95471256  0.98203563  0.50248078    -0.10000
C812        C  0.95081399  0.97640111  0.51402884    -0.11600
C813        C  0.96042703  0.92762531  0.52014988    -0.01400
C814        C  0.97298825  0.88273331  0.51429869    -0.10500
C815        C  0.97342168  0.94690811  0.48440464     0.05900
H816        H  0.94801266  0.02189683  0.49826319     0.07900
H817        H  0.94102303  0.01197090  0.51825319     0.11300
H818        H  0.98061105  0.84469843  0.51876990     0.11600
H819        H  0.98646544  0.85265006  0.49837525     0.07900
C820        C  0.99521660  0.92633964  0.47993630    -0.11200
C821        C  0.99967448  0.93045385  0.46839118    -0.10500
C822        C  0.98270113  0.95633345  0.46104110    -0.01400
C823        C  0.96158868  0.98045580  0.46551497    -0.11600
C824        C  0.95688429  0.97534474  0.47706881    -0.10000
H825        H  0.00874829  0.90607774  0.48531986     0.07900
H826        H  0.01611549  0.91144848  0.46512699     0.11600
H827        H  0.94801504  0.99949403  0.45998300     0.11300
H828        H  0.93979808  0.99131807  0.48012755     0.07900
C829        C  0.82568768  0.86665324  0.43740471    -0.11200
C830        C  0.84345516  0.82144002  0.43758164     0.05900
C831        C  0.83641095  0.76097157  0.43863658    -0.10000
C832        C  0.81222216  0.74566898  0.43899098    -0.11600
C833        C  0.79441493  0.79036628  0.43822074    -0.01400
C834        C  0.80131304  0.85120238  0.43771458    -0.10500
C835        C  0.86909153  0.83633919  0.43582155     0.05900
H836        H  0.84953399  0.72501542  0.43865938     0.07900
H837        H  0.80747817  0.69829769  0.43947986     0.11300
H838        H  0.78793990  0.88648107  0.43716060     0.11600
H839        H  0.83061823  0.91383734  0.43679429     0.07900
C840        C  0.87538421  0.88083674  0.42800067    -0.11200
C841        C  0.89939384  0.89358305  0.42592764    -0.10500
C842        C  0.91772138  0.86180114  0.43154191    -0.01400
C843        C  0.91160279  0.81654492  0.43922477    -0.11600
C844        C  0.88745262  0.80411093  0.44139685    -0.10000
H845        H  0.86175156  0.90530617  0.42333725     0.07900
H846        H  0.90362470  0.92865404  0.41991644     0.11600
H847        H  0.92542684  0.79211244  0.44377171     0.11300
H848        H  0.88316115  0.76982976  0.44754433     0.07900
C849        C  0.61895618  0.66235767  0.42414496    -0.11200
C850        C  0.61583467  0.60342763  0.42840059     0.05900
C851        C  0.63483230  0.57683543  0.43443123    -0.10000
C852        C  0.65657963  0.60716346  0.43582100    -0.11600
C853        C  0.65982470  0.66533235  0.43141502    -0.01400
C854        C  0.64074102  0.69331341  0.42573471    -0.10500
C855        C  0.59289279  0.56973642  0.42672469     0.05900
H856        H  0.63293863  0.53251553  0.43813443     0.07900
H857        H  0.67101734  0.58487238  0.44034915     0.11300
H858        H  0.64297560  0.73789125  0.42217072     0.11600
H859        H  0.60480029  0.68404839  0.41934995     0.07900
C860        C  0.57089216  0.60041306  0.42680536    -0.11200
C861        C  0.54932479  0.56876639  0.42563630    -0.10500
C862        C  0.54913853  0.50552343  0.42449837    -0.01400
C863        C  0.57104139  0.47457559  0.42435126    -0.11600
C864        C  0.59271294  0.50640603  0.42535312    -0.10000
H865        H  0.57023361  0.64881767  0.42805678     0.07900
H866        H  0.53269616  0.59392353  0.42588585     0.11600
H867        H  0.57142165  0.42591430  0.42343545     0.11300
H868        H  0.60932934  0.48129547  0.42501876     0.07900
C869        C  0.60583750  0.65195887  0.55402368    -0.11200
C870        C  0.59688245  0.59394878  0.55165902     0.05900
C871        C  0.61299372  0.54488600  0.55180801    -0.10000
C872        C  0.63747047  0.55378271  0.55414163    -0.11600
C873        C  0.64632179  0.61183575  0.55650237    -0.01400
C874        C  0.63019177  0.66074133  0.55644213    -0.10500
C875        C  0.57083866  0.58417767  0.54923274     0.05900
H876        H  0.60664217  0.49932389  0.55026109     0.07900
H877        H  0.64941195  0.51529855  0.55415261     0.11300
H878        H  0.63644183  0.70629690  0.55812002     0.11600
H879        H  0.59409061  0.69080615  0.55385364     0.07900
C880        C  0.55305192  0.61624682  0.55515581    -0.11200
C881        C  0.52869284  0.60106270  0.55384608    -0.10500
C882        C  0.52184764  0.55337327  0.54666993    -0.01400
C883        C  0.53937089  0.52438216  0.54019306    -0.11600
C884        C  0.56353923  0.53994779  0.54137462    -0.10000
H885        H  0.55801713  0.65051188  0.56130317     0.07900
H886        H  0.51549925  0.62327775  0.55906562     0.11600
H887        H  0.53444115  0.48742449  0.53459646     0.11300
H888        H  0.57661196  0.51570659  0.53641439     0.07900
C889        C  0.81269063  0.78655630  0.56893054    -0.11200
C890        C  0.83013883  0.76458250  0.56151979     0.05900
C891        C  0.82535224  0.71048682  0.55554956    -0.10000
C892        C  0.80319732  0.68068697  0.55661812    -0.11600
C893        C  0.78541526  0.70460327  0.56363642    -0.01400
C894        C  0.79063602  0.75707335  0.56995102    -0.10500
C895        C  0.85307473  0.79842450  0.55999519     0.05900
H896        H  0.83836877  0.69244470  0.54972171     0.07900
H897        H  0.79953338  0.64087263  0.55153135     0.11300
H898        H  0.77731113  0.77644473  0.57547841     0.11600
H899        H  0.81597574  0.82708874  0.57386731     0.07900
C900        C  0.85348713  0.86211927  0.55961080    -0.11200
C901        C  0.87517955  0.89370909  0.55829865    -0.10500
C902        C  0.89691196  0.86224775  0.55740665    -0.01400
C903        C  0.89639930  0.79865471  0.55775885    -0.11600
C904        C  0.87482221  0.76724852  0.55900878    -0.10000
H905        H  0.83698505  0.88755359  0.56020743     0.07900
H906        H  0.87495983  0.94257826  0.55804486     0.11600
H907        H  0.91278793  0.77278906  0.55709005     0.11300
H908        H  0.87524689  0.71842150  0.55940632     0.07900
C909        C  0.72431958  0.65336396  0.48535709    -0.11200
C910        C  0.72001236  0.70512281  0.49201543     0.05900
C911        C  0.71662051  0.76065063  0.48659496    -0.10000
C912        C  0.71764653  0.76453403  0.47485183    -0.11600
C913        C  0.72219814  0.71304980  0.46820242    -0.01400
C914        C  0.72550717  0.65734440  0.47357217    -0.10500
C915        C  0.71984823  0.70161030  0.50456578     0.05900
H916        H  0.71368446  0.80148879  0.49144349     0.07900
H917        H  0.71517800  0.80830687  0.47098356     0.11300
H918        H  0.72889072  0.61689946  0.46867263     0.11600
H919        H  0.72666354  0.60964474  0.48925627     0.07900
C920        C  0.70362055  0.73579114  0.51105089    -0.11200
C921        C  0.70352089  0.73125516  0.52287481    -0.10500
C922        C  0.71951007  0.69211243  0.52835827    -0.01400
C923        C  0.73601638  0.65923365  0.52189302    -0.11600
C924        C  0.73627064  0.66410923  0.51017941    -0.10000
H925        H  0.69059444  0.76479794  0.50697123     0.07900
H926        H  0.69039338  0.75631131  0.52766532     0.11600
H927        H  0.74865593  0.62891579  0.52592428     0.11300
H928        H  0.74940061  0.63840030  0.50551457     0.07900
C929        C  0.97427060  0.29911703  0.85283162    -0.11200
C930        C  0.97018469  0.25696974  0.86140281     0.05900
C931        C  0.96689853  0.19576837  0.85836654    -0.10000
C932        C  0.96791566  0.17726070  0.84702802    -0.11600
C933        C  0.97246004  0.21950731  0.83851653    -0.01400
C934        C  0.97547273  0.28063793  0.84156660    -0.10500
C935        C  0.97059711  0.27654232  0.87346943     0.05900
H936        H  0.96349267  0.16217197  0.86476690     0.07900
H937        H  0.96544348  0.12997007  0.84494256     0.11300
H938        H  0.97886215  0.31454080  0.83521603     0.11600
H939        H  0.97720382  0.34631920  0.85485461     0.07900
C940        C  0.98218286  0.24083229  0.88158873    -0.11200
C941        C  0.98343096  0.25934964  0.89284847    -0.10500
C942        C  0.97313786  0.31422309  0.89637846    -0.01400
C943        C  0.96159505  0.35039267  0.88828914    -0.11600
C944        C  0.96034960  0.33172962  0.87693481    -0.10000
H945        H  0.99069532  0.19882956  0.87920993     0.07900
H946        H  0.99254354  0.23026927  0.89882450     0.11600
H947        H  0.95328588  0.39250910  0.89075377     0.11300
H948        H  0.95112626  0.36013616  0.87088688     0.07900
C949        C  0.98252868  0.09820059  0.62493277    -0.11200
C950        C  0.97566084  0.03885139  0.62188790     0.05900
C951        C  0.96847482  0.99916412  0.63038615    -0.10000
C952        C  0.96785732  0.01819161  0.64160235    -0.11600
C953        C  0.97445747  0.07753538  0.64469188    -0.01400
C954        C  0.98198631  0.11733801  0.63624730    -0.10500
C955        C  0.97436748  0.01916854  0.60986828     0.05900
H956        H  0.96264779  0.95366538  0.62833680     0.07900
H957        H  0.96201011  0.98608782  0.64787201     0.11300
H958        H  0.98731559  0.16311999  0.63836985     0.11600
H959        H  0.98832067  0.12978788  0.61856428     0.07900
C960        C  0.96512483  0.05849299  0.60170224    -0.11200
C961        C  0.96209122  0.03940728  0.59056118    -0.10500
C962        C  0.96826573  0.98036964  0.58720333    -0.01400
C963        C  0.97789906  0.94098606  0.59529517    -0.11600
C964        C  0.98084296  0.96015903  0.60654864    -0.10000
H965        H  0.95957335  0.10373762  0.60397796     0.07900
H966        H  0.95477195  0.07131185  0.58455870     0.11600
H967        H  0.98303468  0.89553402  0.59294829     0.11300
H968        H  0.98820735  0.92889237  0.61265276     0.07900
C969        C  0.97596805  0.19972672  0.72899208    -0.11200
C970        C  0.97420063  0.14639516  0.73541783     0.05900
C971        C  0.97223642  0.09090950  0.72976382    -0.10000
C972        C  0.97185682  0.08853978  0.71803363    -0.11600
C973        C  0.97356619  0.14154867  0.71156647    -0.01400
C974        C  0.97573877  0.19730430  0.71714701    -0.10500
C975        C  0.97502568  0.14788866  0.74796050     0.05900
H976        H  0.97141624  0.04896454  0.73440495     0.07900
H977        H  0.97043968  0.04459352  0.71402474     0.11300
H978        H  0.97702861  0.23877954  0.71238604     0.11600
H979        H  0.97729119  0.24334861  0.73311920     0.07900
C980        C  0.99058532  0.18796302  0.75361161    -0.11200
C981        C  0.99157545  0.18942378  0.76536588    -0.10500
C982        C  0.97712696  0.15065360  0.77179883    -0.01400
C983        C  0.96191512  0.10949066  0.76620909    -0.11600
C984        C  0.96080050  0.10827793  0.75438663    -0.10000
H985        H  0.00217905  0.21798542  0.74894842     0.07900
H986        H  0.00361181  0.22149144  0.76943634     0.11600
H987        H  0.95040518  0.07963875  0.77095722     0.11300
H988        H  0.94844113  0.07715971  0.75028226     0.07900
C989        C  0.72454657  0.32341344  0.88632833    -0.11200
C990        C  0.71823743  0.28553035  0.87722273     0.05900
C991        C  0.71053462  0.22606953  0.87957748    -0.10000
C992        C  0.70907053  0.20546854  0.89074338    -0.11600
C993        C  0.71480144  0.24432772  0.89975597    -0.01400
C994        C  0.72262094  0.30329625  0.89741221    -0.10500
C995        C  0.71976272  0.30824802  0.86538694     0.05900
H996        H  0.70515169  0.19570833  0.87282073     0.07900
H997        H  0.70281608  0.15998499  0.89233743     0.11300
H998        H  0.72745928  0.33406317  0.90420966     0.11600
H999        H  0.73119384  0.36869744  0.88493142     0.07900
C1000       C  0.71532291  0.36948450  0.86282732    -0.11200
C1001       C  0.71676115  0.39056575  0.85171101    -0.10500
C1002       C  0.72210385  0.35058965  0.84289676    -0.01400
C1003       C  0.72670931  0.28975341  0.84542131    -0.11600
C1004       C  0.72579607  0.26896601  0.85651632    -0.10000
H1005       H  0.71018330  0.40105680  0.86936338     0.07900
H1006       H  0.71285445  0.43747737  0.84995524     0.11600
H1007       H  0.73107898  0.25804143  0.83876391     0.11300
H1008       H  0.72994931  0.22206866  0.85811697     0.07900
C1009       C  0.87909920  0.31923623  0.79776963    -0.11200
C1010       C  0.86037293  0.27837457  0.80019610     0.05900
C1011       C  0.86614680  0.21860948  0.80285205    -0.10000
C1012       C  0.88996265  0.20048366  0.80349445    -0.11600
C1013       C  0.90877756  0.24162361  0.80154932    -0.01400
C1014       C  0.90315653  0.30100876  0.79846983    -0.10500
C1015       C  0.83513846  0.29875699  0.80119152     0.05900
H1016       H  0.85229884  0.18625922  0.80496319     0.07900
H1017       H  0.89358314  0.15418016  0.80583569     0.11300
H1018       H  0.91727136  0.33338446  0.79678307     0.11600
H1019       H  0.87515341  0.36552016  0.79554416     0.07900
C1020       C  0.83027541  0.35429926  0.80637922    -0.11200
C1021       C  0.80675798  0.37121022  0.80858205    -0.10500
C1022       C  0.78740213  0.33304550  0.80567298    -0.01400
C1023       C  0.79208116  0.27781520  0.80029740    -0.11600
C1024       C  0.81577063  0.26083395  0.79805508    -0.10000
H1025       H  0.84470585  0.38398166  0.80911956     0.07900
H1026       H  0.80379548  0.41431531  0.81268063     0.11600
H1027       H  0.77749656  0.24798677  0.79780512     0.11300
H1028       H  0.81895027  0.21789568  0.79393796     0.07900
C1029       C  0.71867936  0.50990853  0.60670686    -0.11200
C1030       C  0.71848051  0.54914832  0.61602064     0.05900
C1031       C  0.71606740  0.61168068  0.61408537    -0.10000
C1032       C  0.71441866  0.63437459  0.60305190    -0.11600
C1033       C  0.71535019  0.59499133  0.59374893    -0.01400
C1034       C  0.71720736  0.53248120  0.59574082    -0.10500
C1035       C  0.72214621  0.52504637  0.62763271     0.05900
H1036       H  0.71561787  0.64306754  0.62111312     0.07900
H1037       H  0.71296864  0.68264649  0.60180113     0.11300
H1038       H  0.71790116  0.50069496  0.58878006     0.11600
H1039       H  0.72079164  0.46173011  0.60787699     0.07900
C1040       C  0.71100187  0.47112463  0.63115741    -0.11200
C1041       C  0.71483943  0.44886434  0.64212095    -0.10500
C1042       C  0.73005148  0.47986480  0.64971468    -0.01400
C1043       C  0.74157386  0.53285917  0.64603598    -0.11600
C1044       C  0.73762348  0.55515983  0.63518988    -0.10000
H1045       H  0.69893848  0.44687849  0.62551379     0.07900
H1046       H  0.70554630  0.40829267  0.64472103     0.11600
H1047       H  0.75345557  0.55802976  0.65162598     0.11300
H1048       H  0.74690825  0.59592033  0.63267952     0.07900
C1049       C  0.84067465  0.34694885  0.68159688    -0.11200
C1050       C  0.83978889  0.28421515  0.67951736     0.05900
C1051       C  0.81732531  0.25615832  0.67825794    -0.10000
C1052       C  0.79627246  0.28999858  0.67886147    -0.11600
C1053       C  0.79710597  0.35281448  0.68078361    -0.01400
C1054       C  0.81954070  0.38090094  0.68223625    -0.10500
C1055       C  0.86222155  0.24867894  0.67824076     0.05900
H1056       H  0.81602115  0.20818083  0.67653228     0.07900
H1057       H  0.77927366  0.26677114  0.67774949     0.11300
H1058       H  0.82076235  0.42902322  0.68382396     0.11600
H1059       H  0.85774308  0.36976591  0.68276461     0.07900
C1060       C  0.88147548  0.27316906  0.67225379    -0.11200
C1061       C  0.90291100  0.24152528  0.67126725    -0.10500
C1062       C  0.90578300  0.18438939  0.67624363    -0.01400
C1063       C  0.88627878  0.15846133  0.68187318    -0.11600
C1064       C  0.86463680  0.19038693  0.68286266    -0.10000
H1065       H  0.88001162  0.31712273  0.66833996     0.07900
H1066       H  0.91752745  0.26263903  0.66678096     0.11600
H1067       H  0.88806581  0.11482266  0.68587706     0.11300
H1068       H  0.85007765  0.17033414  0.68754172     0.07900
C1069       C  0.72578601  0.37214447  0.73420275    -0.11200
C1070       C  0.73164969  0.42418567  0.74059860     0.05900
C1071       C  0.73956637  0.47582447  0.73491742    -0.10000
C1072       C  0.74119150  0.47598583  0.72318773    -0.11600
C1073       C  0.73478407  0.42466903  0.71675537    -0.01400
C1074       C  0.72724011  0.37246822  0.72238487    -0.10500
C1075       C  0.72866630  0.42573256  0.75308054     0.05900
H1076       H  0.74384267  0.51695044  0.73950059     0.07900
H1077       H  0.74697451  0.51720522  0.71913837     0.11300
H1078       H  0.72227888  0.33223630  0.71766883     0.11600
H1079       H  0.71999748  0.33117416  0.73832796     0.07900
C1080       C  0.70921867  0.39583048  0.75804003    -0.11200
C1081       C  0.70630933  0.39674738  0.76971536    -0.10500
C1082       C  0.72261850  0.42803927  0.77675877    -0.01400
C1083       C  0.74170885  0.45953212  0.77185605    -0.11600
C1084       C  0.74477660  0.45816351  0.76012360    -0.10000
H1085       H  0.69613417  0.37174606  0.75289568     0.07900
H1086       H  0.69139664  0.37202658  0.77326793     0.11600
H1087       H  0.75478401  0.48302033  0.77710900     0.11300
H1088       H  0.76011501  0.48123366  0.75660359     0.07900
C1089       C  0.47914118  0.62992430  0.62019098    -0.11200
C1090       C  0.47467929  0.56903540  0.61728628     0.05900
C1091       C  0.47197031  0.52666331  0.62589850    -0.10000
C1092       C  0.47339618  0.54442062  0.63714441    -0.11600
C1093       C  0.47756324  0.60519454  0.64014800    -0.01400
C1094       C  0.48069403  0.64787007  0.63156632    -0.10500
C1095       C  0.47178997  0.54930485  0.60537794     0.05900
H1096       H  0.46810915  0.47975774  0.62394551     0.07900
H1097       H  0.47092462  0.51014901  0.64351801     0.11300
H1098       H  0.48390831  0.69491998  0.63363551     0.11600
H1099       H  0.48140752  0.66348912  0.61367300     0.07900
C1100       C  0.45789111  0.58345574  0.59785693    -0.11200
C1101       C  0.45402733  0.56338373  0.58681330    -0.10500
C1102       C  0.46409337  0.50879987  0.58299909    -0.01400
C1103       C  0.47796847  0.47443762  0.59051608    -0.11600
C1104       C  0.48173783  0.49445153  0.60161935    -0.10000
H1105       H  0.44963893  0.62522930  0.60057376     0.07900
H1106       H  0.44327078  0.59109648  0.58122499     0.11600
H1107       H  0.48609068  0.43252686  0.58779111     0.11300
H1108       H  0.49262213  0.46730856  0.60725042     0.07900
C1109       C  0.58766907  0.62876427  0.68014333    -0.11200
C1110       C  0.59563689  0.56878130  0.68027373     0.05900
C1111       C  0.57877058  0.52207683  0.67833876    -0.10000
C1112       C  0.55444121  0.53505733  0.67660518    -0.11600
C1113       C  0.54654824  0.59503022  0.67660657    -0.01400
C1114       C  0.56346671  0.64171442  0.67828691    -0.10500
C1115       C  0.62132957  0.55469319  0.68253867     0.05900
H1116       H  0.58437839  0.47534569  0.67810842     0.07900
H1117       H  0.54185856  0.49829970  0.67523765     0.11300
H1118       H  0.55794194  0.68855279  0.67838714     0.11600
H1119       H  0.60002550  0.66575861  0.68172482     0.07900
C1120       C  0.63995303  0.59128510  0.67831652    -0.11200
C1121       C  0.66404600  0.57436609  0.67970770    -0.10500
C1122       C  0.66977068  0.52040413  0.68523388    -0.01400
C1123       C  0.65129936  0.48597044  0.69000881    -0.11600
C1124       C  0.62741572  0.50308592  0.68875111    -0.10000
H1125       H  0.63590543  0.63136414  0.67347383     0.07900
H1126       H  0.67799770  0.60126467  0.67586539     0.11600
H1127       H  0.65530658  0.44437869  0.69441345     0.11300
H1128       H  0.61366549  0.47502886  0.69245742     0.07900
C1129       C  0.47301251  0.81150244  0.84832142    -0.11200
C1130       C  0.46909293  0.76969742  0.85694074     0.05900
C1131       C  0.46626471  0.70816269  0.85404908    -0.10000
C1132       C  0.46738813  0.68914643  0.84272185    -0.11600
C1133       C  0.47161204  0.73135484  0.83415368    -0.01400
C1134       C  0.47426897  0.79267110  0.83712645    -0.10500
C1135       C  0.46906960  0.79082323  0.86887789     0.05900
H1136       H  0.46311984  0.67488825  0.86053853     0.07900
H1137       H  0.46524313  0.64169385  0.84069235     0.11300
H1138       H  0.47750987  0.82663314  0.83077028     0.11600
H1139       H  0.47571257  0.85890495  0.85025362     0.07900
C1140       C  0.48148064  0.75836906  0.87720800    -0.11200
C1141       C  0.48291140  0.78022555  0.88827134    -0.10500
C1142       C  0.47192449  0.83508088  0.89131721    -0.01400
C1143       C  0.45938032  0.86753349  0.88301556    -0.11600
C1144       C  0.45795497  0.84559115  0.87190748    -0.10000
H1145       H  0.49057810  0.71670666  0.87511683     0.07900
H1146       H  0.49274213  0.75398786  0.89445830     0.11600
H1147       H  0.45052162  0.90949527  0.88512096     0.11300
H1148       H  0.44807637  0.87140745  0.86567675     0.07900
C1149       C  0.58315191  0.62418474  0.81395268    -0.11200
C1150       C  0.58814744  0.56853578  0.80861163     0.05900
C1151       C  0.57086692  0.54405533  0.80115130    -0.10000
C1152       C  0.54893771  0.57283928  0.79941755    -0.11600
C1153       C  0.54386651  0.62766238  0.80485164    -0.01400
C1154       C  0.56125599  0.65378171  0.81200180    -0.10500
C1155       C  0.61130977  0.53625581  0.81055099     0.05900
H1156       H  0.57424460  0.50254221  0.79658889     0.07900
H1157       H  0.53579402  0.55205209  0.79380714     0.11300
H1158       H  0.55753364  0.69563470  0.81640541     0.11600
H1159       H  0.59588515  0.64422615  0.81984059     0.07900
C1160       C  0.63278449  0.56869339  0.81217893    -0.11200
C1161       C  0.65470768  0.53855495  0.81303534    -0.10500
C1162       C  0.65581854  0.47517432  0.81219458    -0.01400
C1163       C  0.63436026  0.44243013  0.81099552    -0.11600
C1164       C  0.61234607  0.47259567  0.81025632    -0.10000
H1165       H  0.63284978  0.61755680  0.81235071     0.07900
H1166       H  0.67092678  0.56527897  0.81399050     0.11600
H1167       H  0.63461079  0.39362702  0.81040943     0.11300
H1168       H  0.59613730  0.44588234  0.80932821     0.07900
C1169       C  0.46607182  0.62119368  0.74989211    -0.11200
C1170       C  0.47800892  0.66575527  0.74356392     0.05900
C1171       C  0.49129927  0.71030480  0.74932105    -0.10000
C1172       C  0.49226249  0.71122300  0.76107452    -0.11600
C1173       C  0.48004594  0.66747443  0.76741666    -0.01400
C1174       C  0.46714318  0.62195179  0.76171869    -0.10500
C1175       C  0.47724914  0.66507391  0.73101338     0.05900
H1176       H  0.50117428  0.74433459  0.74474184     0.07900
H1177       H  0.50248035  0.74682596  0.76520889     0.11300
H1178       H  0.45737676  0.58805832  0.76638730     0.11600
H1179       H  0.45548985  0.58644059  0.74571478     0.07900
C1180       C  0.47807562  0.60996241  0.72518268    -0.11200
C1181       C  0.47803311  0.60868376  0.71344313    -0.10500
C1182       C  0.47733946  0.66246337  0.70715865    -0.01400
C1183       C  0.47664186  0.71786317  0.71290812    -0.11600
C1184       C  0.47646276  0.71914438  0.72475188    -0.10000
H1185       H  0.47923209  0.56763376  0.72968764     0.07900
H1186       H  0.47881441  0.56510339  0.70927258     0.11600
H1187       H  0.47590553  0.75985325  0.70827529     0.11300
H1188       H  0.47550629  0.76242988  0.72900519     0.07900
C1189       C  0.23217773  0.06293136  0.63300051    -0.11200
C1190       C  0.22378102  0.02411400  0.62444373     0.05900
C1191       C  0.21792982  0.96404770  0.62724850    -0.10000
C1192       C  0.22041575  0.94344683  0.63838711    -0.11600
C1193       C  0.22904424  0.98234238  0.64690267    -0.01400
C1194       C  0.23486304  0.04230695  0.64405376    -0.10500
C1195       C  0.22233319  0.04558405  0.61256723     0.05900
H1196       H  0.21127263  0.93311684  0.62083310     0.07900
H1197       H  0.21565805  0.89721213  0.64032432     0.11300
H1198       H  0.24144054  0.07373555  0.65040486     0.11600
H1199       H  0.23718813  0.10905870  0.63110424     0.07900
C1200       C  0.21375092  0.10372174  0.60990320    -0.11200
C1201       C  0.21348012  0.12419219  0.59869306    -0.10500
C1202       C  0.22194243  0.08702000  0.58997308    -0.01400
C1203       C  0.23041302  0.02895812  0.59269872    -0.11600
C1204       C  0.23056904  0.00856430  0.60381127    -0.10000
H1205       H  0.20714261  0.13318912  0.61648370     0.07900
H1206       H  0.20673981  0.16894220  0.59686111     0.11600
H1207       H  0.23709699  0.99894531  0.58621980     0.11300
H1208       H  0.23767523  0.96409344  0.60558125     0.07900
C1209       C  0.08331066  0.10368397  0.68313703    -0.11200
C1210       C  0.09169313  0.04417366  0.68292477     0.05900
C1211       C  0.07486567  0.99654427  0.68195876    -0.10000
C1212       C  0.05020240  0.00854619  0.68104899    -0.11600
C1213       C  0.04203722  0.06835175  0.68100844    -0.01400
C1214       C  0.05889199  0.11558612  0.68215874    -0.10500
C1215       C  0.11790995  0.03231154  0.68358311     0.05900
H1216       H  0.08078094  0.95006351  0.68165774     0.07900
H1217       H  0.03764201  0.97135011  0.68018072     0.11300
H1218       H  0.05323730  0.16232089  0.68231460     0.11600
H1219       H  0.09562839  0.14130450  0.68413304     0.07900
C1220       C  0.13446465  0.07031271  0.67809412    -0.11200
C1221       C  0.15903796  0.05712891  0.67824878    -0.10500
C1222       C  0.16731050  0.00536224  0.68375756    -0.01400
C1223       C  0.15098946  0.96881947  0.68958683    -0.11600
C1224       C  0.12658941  0.98233457  0.68957221    -0.10000
H1225       H  0.12834840  0.10888973  0.67329701     0.07900
H1226       H  0.17130715  0.08521865  0.67354394     0.11600
H1227       H  0.15709638  0.92863481  0.69392270     0.11300
H1228       H  0.11448350  0.95310211  0.69411961     0.07900
C1229       C  0.34121655  0.85522079  0.67806511    -0.11200
C1230       C  0.34143585  0.79422955  0.67459603     0.05900
C1231       C  0.31957551  0.76528417  0.67218628    -0.10000
C1232       C  0.29798759  0.79653660  0.67314727    -0.11600
C1233       C  0.29768040  0.85754868  0.67658005    -0.01400
C1234       C  0.31953187  0.88660452  0.67905000    -0.10500
C1235       C  0.36443654  0.76146363  0.67322474     0.05900
H1236       H  0.31918479  0.71869208  0.66936100     0.07900
H1237       H  0.28146911  0.77270607  0.67115354     0.11300
H1238       H  0.31985618  0.93333202  0.68179146     0.11600
H1239       H  0.35783091  0.87850214  0.68010911     0.07900
C1240       C  0.38389740  0.79058006  0.66817998    -0.11200
C1241       C  0.40596727  0.76176468  0.66733288    -0.10500
C1242       C  0.40925656  0.70302378  0.67154588    -0.01400
C1243       C  0.38954746  0.67247261  0.67613049    -0.11600
C1244       C  0.36725971  0.70150298  0.67695519    -0.10000
H1245       H  0.38210912  0.83604396  0.66495145     0.07900
H1246       H  0.42070493  0.78634288  0.66360109     0.11600
H1247       H  0.39159365  0.62730418  0.67946277     0.11300
H1248       H  0.35249248  0.67790383  0.68086360     0.07900
C1249       C  0.21201828  0.72529214  0.85233037    -0.11200
C1250       C  0.22097636  0.76104869  0.86123208     0.05900
C1251       C  0.22908731  0.81996333  0.85883028    -0.10000
C1252       C  0.22803259  0.84268683  0.84779409    -0.11600
C1253       C  0.21875500  0.80703826  0.83892887    -0.01400
C1254       C  0.21086656  0.74799964  0.84134628    -0.10500
C1255       C  0.22053784  0.73827471  0.87305618     0.05900
H1256       H  0.23629012  0.84848641  0.86550735     0.07900
H1257       H  0.23445102  0.88803396  0.84620745     0.11300
H1258       H  0.20362580  0.71913428  0.83472892     0.11600
H1259       H  0.20532052  0.68018424  0.85390677     0.07900
C1260       C  0.21258759  0.77621790  0.88173530    -0.11200
C1261       C  0.21142861  0.75558284  0.89281757    -0.10500
C1262       C  0.21831414  0.69633093  0.89563935    -0.01400
C1263       C  0.22625357  0.65791120  0.88697389    -0.11600
C1264       C  0.22722401  0.67861904  0.87576547    -0.10000
H1265       H  0.20686803  0.82188325  0.87992918     0.07900
H1266       H  0.20517946  0.78664868  0.89922507     0.11600
H1267       H  0.23178684  0.61220621  0.88885801     0.11300
H1268       H  0.23348796  0.64829332  0.86923956     0.07900
C1269       C  0.32613107  0.82154667  0.80705651    -0.11200
C1270       C  0.33308964  0.78305758  0.79825441     0.05900
C1271       C  0.31514679  0.75373010  0.79174337    -0.10000
C1272       C  0.29075632  0.76377977  0.79389644    -0.11600
C1273       C  0.28402613  0.80354427  0.80253863    -0.01400
C1274       C  0.30194889  0.83179216  0.80913874    -0.10500
C1275       C  0.35900348  0.77121578  0.79645281     0.05900
H1276       H  0.31997270  0.72387311  0.78487536     0.07900
H1277       H  0.27725191  0.74234307  0.78857801     0.11300
H1278       H  0.29722766  0.86256011  0.81589320     0.11600
H1279       H  0.33940655  0.84340389  0.81244156     0.07900
C1280       C  0.37626651  0.81754100  0.79779400    -0.11200
C1281       C  0.40084864  0.80425796  0.79776218    -0.10500
C1282       C  0.40849682  0.74442425  0.79645146    -0.01400
C1283       C  0.39127688  0.69893690  0.79441831    -0.11600
C1284       C  0.36684598  0.71215949  0.79440058    -0.10000
H1285       H  0.37073778  0.86377566  0.79918969     0.07900
H1286       H  0.41375411  0.84015113  0.79927966     0.11600
H1287       H  0.39667149  0.65241271  0.79323440     0.11300
H1288       H  0.35410269  0.67544409  0.79339995     0.07900
C1289       C  0.10792107  0.93854875  0.80559317    -0.11200
C1290       C  0.10695508  0.99932947  0.80917053     0.05900
C1291       C  0.12799004  0.02704400  0.81323568    -0.10000
C1292       C  0.14960610  0.99561212  0.81342390    -0.11600
C1293       C  0.15084072  0.93553960  0.80953103    -0.01400
C1294       C  0.12970045  0.90689856  0.80576882    -0.10500
C1295       C  0.08414558  0.03389511  0.80878894     0.05900
H1296       H  0.12774662  0.07319150  0.81629995     0.07900
H1297       H  0.16552004  0.01896896  0.81647857     0.11300
H1298       H  0.13012555  0.86082366  0.80267536     0.11600
H1299       H  0.09196887  0.91599664  0.80237979     0.07900
C1300       C  0.08372744  0.09486982  0.80539968    -0.11200
C1301       C  0.06215592  0.12735951  0.80518888    -0.10500
C1302       C  0.04065093  0.09935548  0.80835175    -0.01400
C1303       C  0.04120873  0.03860289  0.81180968    -0.11600
C1304       C  0.06263746  0.00634909  0.81202249    -0.10000
H1305       H  0.10003099  0.11715126  0.80273940     0.07900
H1306       H  0.06222688  0.17379594  0.80236770     0.11600
H1307       H  0.02495943  0.01558345  0.81433631     0.11300
H1308       H  0.06240018  0.95992756  0.81485209     0.07900
C1309       C  0.20413209  0.87239778  0.75438166    -0.11200
C1310       C  0.22226501  0.90815706  0.74966027     0.05900
C1311       C  0.23699112  0.94299669  0.75697586    -0.10000
C1312       C  0.23411353  0.94055443  0.76871109    -0.11600
C1313       C  0.21665542  0.90268972  0.77337294    -0.01400
C1314       C  0.20144660  0.86950536  0.76607098    -0.10500
C1315       C  0.22573557  0.90918242  0.73718374     0.05900
H1316       H  0.25132146  0.97064904  0.75367231     0.07900
H1317       H  0.24626811  0.96596187  0.77413637     0.11300
H1318       H  0.18770226  0.84010551  0.76942352     0.11600
H1319       H  0.19203960  0.84627902  0.74905056     0.07900
C1320       C  0.22206177  0.85704705  0.73045900    -0.11200
C1321       C  0.22492626  0.85903255  0.71869925    -0.10500
C1322       C  0.23179752  0.91299727  0.71346190    -0.01400
C1323       C  0.23571780  0.96465051  0.72021556    -0.11600
C1324       C  0.23259619  0.96287934  0.73186407    -0.10000
H1325       H  0.21709800  0.81456929  0.73428158     0.07900
H1326       H  0.22171201  0.81860059  0.71372561     0.11600
H1327       H  0.24070148  0.00733762  0.71646673     0.11300
H1328       H  0.23507998  0.00418224  0.73666422     0.07900
C1329       C  0.24967847  0.30640158  0.35492018    -0.11200
C1330       C  0.24259600  0.34235610  0.36409979     0.05900
C1331       C  0.23596538  0.40288959  0.36198154    -0.10000
C1332       C  0.23604075  0.42619256  0.35098364    -0.11600
C1333       C  0.24214183  0.38900096  0.34186945    -0.01400
C1334       C  0.24915593  0.32920413  0.34396258    -0.10500
C1335       C  0.24170351  0.31645816  0.37573976     0.05900
H1336       H  0.22999207  0.43197024  0.36875065     0.07900
H1337       H  0.23037748  0.47227788  0.34955233     0.11300
H1338       H  0.25424007  0.29981446  0.33705322     0.11600
H1339       H  0.25560173  0.26040995  0.35614962     0.07900
C1340       C  0.23627751  0.25481422  0.37752935    -0.11200
C1341       C  0.23456284  0.23147504  0.38849184    -0.10500
C1342       C  0.23764946  0.26962509  0.39785983    -0.01400
C1343       C  0.24354396  0.33057013  0.39610942    -0.11600
C1344       C  0.24582532  0.35351381  0.38522862    -0.10000
H1345       H  0.23259842  0.22477433  0.37048850     0.07900
H1346       H  0.22984763  0.18444375  0.38963878     0.11600
H1347       H  0.24635870  0.36079180  0.40322744     0.11300
H1348       H  0.25077326  0.40049236  0.38429961     0.07900
C1349       C  0.24386738  0.53699053  0.13235562    -0.11200
C1350       C  0.22888317  0.50233626  0.12528068     0.05900
C1351       C  0.21761918  0.45074764  0.12976873    -0.10000
C1352       C  0.22109420  0.43479593  0.14115538    -0.11600
C1353       C  0.23614990  0.46972699  0.14820865    -0.01400
C1354       C  0.24752732  0.52083880  0.14361300    -0.10500
C1355       C  0.22610810  0.51896560  0.11315889     0.05900
H1356       H  0.20592882  0.42320245  0.12449403     0.07900
H1357       H  0.21189489  0.39559428  0.14444735     0.11300
H1358       H  0.25926164  0.54899268  0.14875386     0.11600
H1359       H  0.25313060  0.57625372  0.12911772     0.07900
C1360       C  0.22238705  0.57939882  0.10989542    -0.11200
C1361       C  0.22175782  0.59546832  0.09843274    -0.10500
C1362       C  0.22523118  0.55156676  0.09001351    -0.01400
C1363       C  0.22851136  0.49107599  0.09331799    -0.11600
C1364       C  0.22878870  0.47496998  0.10472035    -0.10000
H1365       H  0.22016361  0.61428238  0.11623034     0.07900
H1366       H  0.21919129  0.64235484  0.09617506     0.11600
H1367       H  0.23116738  0.45598442  0.08706382     0.11300
H1368       H  0.23195290  0.42826967  0.10695441     0.07900
C1369       C  0.23624263  0.39881090  0.23408533    -0.11200
C1370       C  0.24483809  0.45126215  0.23962185     0.05900
C1371       C  0.25511765  0.49716211  0.23313577    -0.10000
C1372       C  0.25629139  0.49154324  0.22141861    -0.11600
C1373       C  0.24714556  0.43994599  0.21582414    -0.01400
C1374       C  0.23734237  0.39324628  0.22229792    -0.10500
C1375       C  0.24257411  0.45879956  0.25206408     0.05900
H1376       H  0.26164274  0.53834758  0.23708038     0.07900
H1377       H  0.26388570  0.52865248  0.21670867     0.11300
H1378       H  0.23018282  0.35300508  0.21825324     0.11600
H1379       H  0.22857448  0.36209550  0.23887119     0.07900
C1380       C  0.22180209  0.43869984  0.25751798    -0.11200
C1381       C  0.22003846  0.44240714  0.26923383    -0.10500
C1382       C  0.23888797  0.46678403  0.27580172    -0.01400
C1383       C  0.25917047  0.48994821  0.27038254    -0.11600
C1384       C  0.26104035  0.48580413  0.25860162    -0.10000
H1385       H  0.20698275  0.41931073  0.25273378     0.07900
H1386       H  0.20412929  0.42447678  0.27321673     0.11600
H1387       H  0.27408076  0.50809362  0.27527814     0.11300
H1388       H  0.27733194  0.50158073  0.25466100     0.07900
C1389       C  0.48206946  0.24208736  0.35477378    -0.11200
C1390       C  0.48799300  0.30300753  0.35699285     0.05900
C1391       C  0.49395306  0.34034955  0.34790792    -0.10000
C1392       C  0.49429879  0.31739221  0.33692488    -0.11600
C1393       C  0.48865766  0.25643367  0.33469267    -0.01400
C1394       C  0.48234472  0.21904902  0.34372392    -0.10500
C1395       C  0.48857957  0.32728230  0.36873916     0.05900
H1396       H  0.49889929  0.38713844  0.34930398     0.07900
H1397       H  0.49914661  0.34763365  0.33015685     0.11300
H1398       H  0.47781960  0.17204589  0.34226437     0.11600
H1399       H  0.47707856  0.21227747  0.36158012     0.07900
C1400       C  0.48052451  0.38613977  0.37119835    -0.11200
C1401       C  0.48102922  0.40838714  0.38230364    -0.10500
C1402       C  0.48960609  0.37221624  0.39115950    -0.01400
C1403       C  0.49810379  0.31396768  0.38863922    -0.11600
C1404       C  0.49759733  0.29183448  0.37759290    -0.10000
H1405       H  0.47333800  0.41455021  0.36457423     0.07900
H1406       H  0.47429134  0.45331815  0.38398270     0.11600
H1407       H  0.50495461  0.28492484  0.39524859     0.11300
H1408       H  0.50444693  0.24694896  0.37597872     0.07900
C1409       C  0.33183788  0.29572058  0.29623217    -0.11200
C1410       C  0.35164834  0.32727853  0.30088929     0.05900
C1411       C  0.34738762  0.37683625  0.30800884    -0.10000
C1412       C  0.32403355  0.39535575  0.31020164    -0.11600
C1413       C  0.30428902  0.36447298  0.30543127    -0.01400
C1414       C  0.30834965  0.31397362  0.29854012    -0.10500
C1415       C  0.37665846  0.30710331  0.29886746     0.05900
H1416       H  0.36210462  0.40105308  0.31202186     0.07900
H1417       H  0.32144707  0.43425837  0.31562607     0.11300
H1418       H  0.29343989  0.28976059  0.29468137     0.11600
H1419       H  0.33446116  0.25753925  0.29064799     0.07900
C1420       C  0.38184906  0.24527505  0.29835239    -0.11200
C1421       C  0.40549889  0.22565743  0.29782016    -0.10500
C1422       C  0.42464720  0.26724380  0.29789717    -0.01400
C1423       C  0.41958719  0.32916838  0.29775731    -0.11600
C1424       C  0.39575107  0.34896471  0.29821932    -0.10000
H1425       H  0.36774609  0.21172070  0.29893206     0.07900
H1426       H  0.40880172  0.17748731  0.29781068     0.11600
H1427       H  0.43399921  0.36211086  0.29775933     0.11300
H1428       H  0.39231000  0.39703441  0.29833553     0.07900
C1429       C  0.47390295  0.96720151  0.12899641    -0.11200
C1430       C  0.48054988  0.00648384  0.12031930     0.05900
C1431       C  0.48732389  0.06611245  0.12316236    -0.10000
C1432       C  0.48675992  0.08643188  0.13439389    -0.11600
C1433       C  0.47925250  0.04765604  0.14300902    -0.01400
C1434       C  0.47317965  0.98755150  0.14018030    -0.10500
C1435       C  0.47843108  0.98702309  0.10829151     0.05900
H1436       H  0.49279235  0.09727965  0.11665675     0.07900
H1437       H  0.49180564  0.13266973  0.13630157     0.11300
H1438       H  0.46752004  0.95616730  0.14661351     0.11600
H1439       H  0.46837945  0.92129632  0.12708666     0.07900
C1440       C  0.48611669  0.92964533  0.10459733    -0.11200
C1441       C  0.48326134  0.91202122  0.09322214    -0.10500
C1442       C  0.47234621  0.95116273  0.08541362    -0.01400
C1443       C  0.46448791  0.00802078  0.08922870    -0.11600
C1444       C  0.46755823  0.02568631  0.10045258    -0.10000
H1445       H  0.49454836  0.89880063  0.11047361     0.07900
H1446       H  0.48956672  0.86806296  0.09054864     0.11600
H1447       H  0.45600597  0.03954911  0.08349678     0.11300
H1448       H  0.46098302  0.06953756  0.10304871     0.07900
C1449       C  0.38529036  0.25215813  0.16735283    -0.11200
C1450       C  0.36724876  0.23611252  0.17495517     0.05900
C1451       C  0.36996703  0.18251293  0.18122902    -0.10000
C1452       C  0.39081233  0.14743151  0.18028503    -0.11600
C1453       C  0.40930530  0.16550369  0.17308465    -0.01400
C1454       C  0.40603440  0.21739502  0.16644558    -0.10500
C1455       C  0.34582833  0.27549351  0.17634901     0.05900
H1456       H  0.35641249  0.16898741  0.18719866     0.07900
H1457       H  0.39301850  0.10820667  0.18561738     0.11300
H1458       H  0.41995885  0.23229398  0.16077396     0.11600
H1459       H  0.38351507  0.29215774  0.16219129     0.07900
C1460       C  0.34796957  0.33902878  0.17648591    -0.11200
C1461       C  0.32763779  0.37578008  0.17767676    -0.10500
C1462       C  0.30477295  0.34966806  0.17867937    -0.01400
C1463       C  0.30276513  0.28621502  0.17857732    -0.11600
C1464       C  0.32297233  0.24972511  0.17745231    -0.10000
H1465       H  0.36540840  0.36030964  0.17578437     0.07900
H1466       H  0.32978249  0.42440293  0.17774652     0.11600
H1467       H  0.28544311  0.26438316  0.17934327     0.11300
H1468       H  0.32061869  0.20116759  0.17724393     0.07900
C1469       C  0.47094221  0.11202059  0.25284954    -0.11200
C1470       C  0.48472270  0.14781295  0.24550362     0.05900
C1471       C  0.50180757  0.18761436  0.25019607    -0.10000
C1472       C  0.50457960  0.19281793  0.26188708    -0.11600
C1473       C  0.49047465  0.15806563  0.26921491    -0.01400
C1474       C  0.47387958  0.11688891  0.26458381    -0.10500
C1475       C  0.48163864  0.14288710  0.23301296     0.05900
H1476       H  0.51312918  0.21476029  0.24483332     0.07900
H1477       H  0.51760332  0.22488239  0.26520524     0.11300
H1478       H  0.46254649  0.09018079  0.27002188     0.11600
H1479       H  0.45741276  0.08131135  0.24954820     0.07900
C1480       C  0.47699966  0.08648107  0.22801516    -0.11200
C1481       C  0.47460124  0.08085315  0.21634342    -0.10500
C1482       C  0.47699368  0.13132486  0.20925267    -0.01400
C1483       C  0.48156154  0.18802031  0.21417397    -0.11600
C1484       C  0.48375316  0.19379967  0.22595585    -0.10000
H1485       H  0.47576170  0.04613419  0.23310213     0.07900
H1486       H  0.47134285  0.03623165  0.21286098     0.11600
H1487       H  0.48349282  0.22765616  0.20894127     0.11300
H1488       H  0.48701140  0.23817141  0.22953704     0.07900
C1489       C  0.97748955  0.74922985  0.35704626    -0.11200
C1490       C  0.98789054  0.80395889  0.36083639     0.05900
C1491       C  0.00152425  0.83788734  0.35324700    -0.10000
C1492       C  0.00412206  0.81886594  0.34210276    -0.11600
C1493       C  0.99325916  0.76515903  0.33819207    -0.01400
C1494       C  0.98017760  0.72994672  0.34581351    -0.10500
C1495       C  0.98514402  0.82558295  0.37267798     0.05900
H1496       H  0.01034371  0.87925527  0.35593165     0.07900
H1497       H  0.01451372  0.84687906  0.33648211     0.11300
H1498       H  0.97146132  0.68864953  0.34301672     0.11600
H1499       H  0.96680563  0.72207302  0.36268385     0.07900
C1500       C  0.98253366  0.88761905  0.37511088    -0.11200
C1501       C  0.98185671  0.90841270  0.38629287    -0.10500
C1502       C  0.98385718  0.86761732  0.39526730    -0.01400
C1503       C  0.98571443  0.80552966  0.39282911    -0.11600
C1504       C  0.98630756  0.78477551  0.38168514    -0.10000
H1505       H  0.98115547  0.92020344  0.36835534     0.07900
H1506       H  0.98024037  0.95639716  0.38790875     0.11600
H1507       H  0.98706688  0.77278433  0.39956305     0.11300
H1508       H  0.98850441  0.73689243  0.38014052     0.07900
C1509       C  0.13120803  0.51900270  0.31034851    -0.11200
C1510       C  0.13085644  0.58224773  0.30895395     0.05900
C1511       C  0.15279568  0.61350167  0.30870255    -0.10000
C1512       C  0.17446621  0.58239260  0.30963395    -0.11600
C1513       C  0.17481086  0.51913023  0.31072223    -0.01400
C1514       C  0.15295474  0.48773459  0.31113301    -0.10500
C1515       C  0.10773821  0.61507228  0.30748284     0.05900
H1516       H  0.15330235  0.66188191  0.30747338     0.07900
H1517       H  0.19103472  0.60796603  0.30919239     0.11300
H1518       H  0.15266423  0.43908848  0.31200053     0.11600
H1519       H  0.11464849  0.49348199  0.31083599     0.07900
C1520       C  0.08861613  0.58741247  0.30161165    -0.11200
C1521       C  0.06646662  0.61592413  0.30071749    -0.10500
C1522       C  0.06288859  0.67334153  0.30547362    -0.01400
C1523       C  0.08216498  0.70287111  0.31084500    -0.11600
C1524       C  0.10441253  0.67373761  0.31191837    -0.10000
H1525       H  0.09066041  0.54336426  0.29774597     0.07900
H1526       H  0.05189574  0.59253717  0.29640028     0.11600
H1527       H  0.07971550  0.74695409  0.31465016     0.11300
H1528       H  0.11871216  0.69634125  0.31654629     0.07900
C1529       C  0.97018879  0.51773864  0.13208431    -0.11200
C1530       C  0.98042764  0.54854547  0.12301578     0.05900
C1531       C  0.99124546  0.60533481  0.12506475    -0.10000
C1532       C  0.99211818  0.63006810  0.13601221    -0.11600
C1533       C  0.98215246  0.59845616  0.14508484    -0.01400
C1534       C  0.97101685  0.54229660  0.14293813    -0.10500
C1535       C  0.97905667  0.52195933  0.11145107     0.05900
H1536       H  0.99936084  0.63014531  0.11823324     0.07900
H1537       H  0.00088252  0.67323920  0.13740153     0.11300
H1538       H  0.96292433  0.51683749  0.14969579     0.11600
H1539       H  0.96123850  0.47473953  0.13076963     0.07900
C1540       C  0.98260471  0.45963070  0.10958543    -0.11200
C1541       C  0.98039386  0.43467157  0.09869365    -0.10500
C1542       C  0.97435430  0.47150590  0.08949402    -0.01400
C1543       C  0.97086217  0.53371932  0.09141861    -0.11600
C1544       C  0.97325736  0.55856365  0.10221519    -0.10000
H1545       H  0.98725957  0.43026706  0.11654401     0.07900
H1546       H  0.98327123  0.38674109  0.09748506     0.11600
H1547       H  0.96627453  0.56366556  0.08453577     0.11300
H1548       H  0.97005251  0.60640830  0.10336585     0.07900
C1549       C  0.09739332  0.63109020  0.17925271    -0.11200
C1550       C  0.10477633  0.57197302  0.18161355     0.05900
C1551       C  0.08706295  0.52670536  0.18276426    -0.10000
C1552       C  0.06258979  0.54067644  0.18177809    -0.11600
C1553       C  0.05538167  0.60002564  0.17950173    -0.01400
C1554       C  0.07310062  0.64482141  0.17816012    -0.10500
C1555       C  0.13080459  0.55806204  0.18299511     0.05900
H1556       H  0.09208423  0.48033174  0.18435852     0.07900
H1557       H  0.04937179  0.50520436  0.18278899     0.11300
H1558       H  0.06821707  0.69118532  0.17643454     0.11600
H1559       H  0.11035213  0.66732607  0.17849313     0.07900
C1560       C  0.14830639  0.58786010  0.17649834    -0.11200
C1561       C  0.17263023  0.57258961  0.17749526    -0.10500
C1562       C  0.17978308  0.52669284  0.18486847    -0.01400
C1563       C  0.16254590  0.49863357  0.19165781    -0.11600
C1564       C  0.13839275  0.51446122  0.19081272    -0.10000
H1565       H  0.14314723  0.62118553  0.17028694     0.07900
H1566       H  0.18555508  0.59369921  0.17198732     0.11600
H1567       H  0.16771000  0.46276992  0.19737208     0.11300
H1568       H  0.12563352  0.49177850  0.19617740     0.07900
C1569       C  0.00710106  0.73914173  0.22752405    -0.11200
C1570       C  0.99233088  0.70364483  0.23449372     0.05900
C1571       C  0.97522628  0.66544546  0.22940532    -0.10000
C1572       C  0.97352792  0.66078800  0.21770401    -0.11600
C1573       C  0.98876395  0.69443804  0.21071848    -0.01400
C1574       C  0.00528186  0.73468655  0.21570600    -0.10500
C1575       C  0.99431867  0.70635279  0.24702299     0.05900
H1576       H  0.96310204  0.63889996  0.23448193     0.07900
H1577       H  0.96039839  0.62987339  0.21409437     0.11300
H1578       H  0.01735238  0.76071850  0.21051154     0.11600
H1579       H  0.02050688  0.76900503  0.23120223     0.07900
C1580       C  0.99175571  0.65374518  0.25357756    -0.11200
C1581       C  0.99209049  0.65687735  0.26539510    -0.10500
C1582       C  0.99516759  0.71262577  0.27088699    -0.01400
C1583       C  0.99821867  0.76492430  0.26432525    -0.11600
C1584       C  0.99777113  0.76184306  0.25255576    -0.10000
H1585       H  0.98946260  0.61006470  0.24955903     0.07900
H1586       H  0.98992360  0.61583580  0.27021632     0.11600
H1587       H  0.00057869  0.80874277  0.26828935     0.11300
H1588       H  0.99948143  0.80321369  0.24779316     0.07900
C1589       C  0.74205376  0.78209340  0.35778857    -0.11200
C1590       C  0.73661309  0.82366843  0.36637969     0.05900
C1591       C  0.73191869  0.88412305  0.36329618    -0.10000
C1592       C  0.73231623  0.90200362  0.35194022    -0.11600
C1593       C  0.73690565  0.85955815  0.34342482    -0.01400
C1594       C  0.74196235  0.79966651  0.34648998    -0.10500
C1595       C  0.73570276  0.80378654  0.37843458     0.05900
H1596       H  0.72727760  0.91746014  0.36960645     0.07900
H1597       H  0.72813046  0.94828615  0.34979066     0.11300
H1598       H  0.74582201  0.76605641  0.34008960     0.11600
H1599       H  0.74644681  0.73574497  0.35975519     0.07900
C1600       C  0.72830530  0.74476161  0.38132946    -0.11200
C1601       C  0.72721606  0.72671706  0.39265904    -0.10500
C1602       C  0.73292709  0.76775104  0.40132081    -0.01400
C1603       C  0.74049900  0.82624700  0.39847327    -0.11600
C1604       C  0.74213305  0.84383497  0.38720478    -0.10000
H1605       H  0.72276634  0.71276656  0.37487230     0.07900
H1606       H  0.72106563  0.68161738  0.39465661     0.11600
H1607       H  0.74523050  0.85861064  0.40502407     0.11300
H1608       H  0.74852471  0.88891696  0.38540246     0.07900
C1609       C  0.83162590  0.77158577  0.30045989    -0.11200
C1610       C  0.84942594  0.81445066  0.30341225     0.05900
C1611       C  0.84242616  0.87000945  0.30795781    -0.10000
C1612       C  0.81829630  0.88278188  0.30951338    -0.11600
C1613       C  0.80039206  0.84039370  0.30656115    -0.01400
C1614       C  0.80723411  0.78450804  0.30201552    -0.10500
C1615       C  0.87533611  0.80058124  0.30253685     0.05900
H1616       H  0.85567404  0.90328714  0.31057518     0.07900
H1617       H  0.81370916  0.92624857  0.31310480     0.11300
H1618       H  0.79381595  0.75126901  0.29959283     0.11600
H1619       H  0.83658165  0.72830163  0.29690921     0.07900
C1620       C  0.88386792  0.74433684  0.30607739    -0.11200
C1621       C  0.90840100  0.73279163  0.30635809    -0.10500
C1622       C  0.92507909  0.77721363  0.30311722    -0.01400
C1623       C  0.91663588  0.83330992  0.29939242    -0.11600
C1624       C  0.89192600  0.84485171  0.29907451    -0.10000
H1625       H  0.87161584  0.70983475  0.30899696     0.07900
H1626       H  0.91431448  0.68905484  0.30931726     0.11600
H1627       H  0.92906562  0.86803170  0.29673871     0.11300
H1628       H  0.88577436  0.88854804  0.29620838     0.07900
C1629       C  0.62272586  0.96275299  0.30948388    -0.11200
C1630       C  0.62145078  0.02482656  0.31212284     0.05900
C1631       C  0.64230164  0.05486312  0.31578093    -0.10000
C1632       C  0.66412944  0.02455577  0.31627935    -0.11600
C1633       C  0.66574220  0.96333750  0.31311269    -0.01400
C1634       C  0.64473170  0.93220408  0.30997697    -0.10500
C1635       C  0.59868347  0.05881601  0.31079301     0.05900
H1636       H  0.64179915  0.10215566  0.31814344     0.07900
H1637       H  0.67994135  0.04975936  0.31889586     0.11300
H1638       H  0.64546411  0.88513600  0.30748350     0.11600
H1639       H  0.60690113  0.93841908  0.30661807     0.07900
C1640       C  0.59855527  0.11726782  0.30612468    -0.11200
C1641       C  0.57697923  0.14865111  0.30461120    -0.10500
C1642       C  0.55516405  0.12200952  0.30769819    -0.01400
C1643       C  0.55541176  0.06409752  0.31255775    -0.11600
C1644       C  0.57689095  0.03292204  0.31408517    -0.10000
H1645       H  0.61509141  0.13818107  0.30340235     0.07900
H1646       H  0.57731241  0.19304860  0.30082122     0.11600
H1647       H  0.53890678  0.04249022  0.31514304     0.11300
H1648       H  0.57644928  0.98854964  0.31788398     0.07900
C1649       C  0.72335176  0.10017668  0.11273865    -0.11200
C1650       C  0.72474306  0.03774293  0.11501795     0.05900
C1651       C  0.72415064  0.99705727  0.10591874    -0.10000
C1652       C  0.72280726  0.01793360  0.09485002    -0.11600
C1653       C  0.72193851  0.08017208  0.09251789    -0.01400
C1654       C  0.72183736  0.12119880  0.10158005    -0.10500
C1655       C  0.72783869  0.01480196  0.12675303     0.05900
H1656       H  0.72548777  0.94889132  0.10732154     0.07900
H1657       H  0.72275397  0.98498182  0.08806677     0.11300
H1658       H  0.72116074  0.16933931  0.10003938     0.11600
H1659       H  0.72349685  0.13274166  0.11958151     0.07900
C1660       C  0.74306959  0.04517249  0.13439562    -0.11200
C1661       C  0.74641867  0.02353839  0.14534079    -0.10500
C1662       C  0.73463380  0.97084476  0.14899144    -0.01400
C1663       C  0.71973842  0.93958032  0.14131933    -0.11600
C1664       C  0.71635706  0.96136985  0.13030747    -0.10000
H1665       H  0.75263100  0.08552158  0.13188612     0.07900
H1666       H  0.75812049  0.04873571  0.15101189     0.11600
H1667       H  0.71022911  0.89931209  0.14391130     0.11300
H1668       H  0.70437927  0.93702120  0.12464125     0.07900
C1669       C  0.57778797  0.97628072  0.18070627    -0.11200
C1670       C  0.59402904  0.02347319  0.18337090     0.05900
C1671       C  0.58502984  0.08180400  0.18501158    -0.10000
C1672       C  0.56064737  0.09329404  0.18363463    -0.11600
C1673       C  0.54448902  0.04673452  0.18067449    -0.01400
C1674       C  0.55315711  0.98778491  0.17943210    -0.10500
C1675       C  0.62029009  0.01248998  0.18426404     0.05900
H1676       H  0.59684796  0.11880174  0.18735908     0.07900
H1677       H  0.55443555  0.13914538  0.18484831     0.11300
H1678       H  0.54108345  0.95120775  0.17713764     0.11600
H1679       H  0.58418111  0.93079743  0.17929255     0.07900
C1680       C  0.62888411  0.95869295  0.18897264    -0.11200
C1681       C  0.65340923  0.94670617  0.18924179    -0.10500
C1682       C  0.66999339  0.98840273  0.18491644    -0.01400
C1683       C  0.66167981  0.04345832  0.18066506    -0.11600
C1684       C  0.63698955  0.05526789  0.18027299    -0.10000
H1685       H  0.61664092  0.92553044  0.19237526     0.07900
H1686       H  0.65942250  0.90402080  0.19267092     0.11600
H1687       H  0.67410943  0.07591876  0.17717233     0.11300
H1688       H  0.63095314  0.09698514  0.17647988     0.07900
C1689       C  0.84800480  0.86595814  0.18187331    -0.11200
C1690       C  0.84983517  0.80522526  0.17835542     0.05900
C1691       C  0.82881518  0.77373041  0.17539893    -0.10000
C1692       C  0.80651157  0.80185321  0.17602972    -0.11600
C1693       C  0.80456469  0.86233052  0.17963782    -0.01400
C1694       C  0.82556587  0.89426938  0.18250598    -0.10500
C1695       C  0.87354909  0.77486924  0.17763823     0.05900
H1696       H  0.82961514  0.72738938  0.17246475     0.07900
H1697       H  0.79071187  0.77589863  0.17368144     0.11300
H1698       H  0.82462952  0.94073555  0.18535515     0.11600
H1699       H  0.86389795  0.89129420  0.18430906     0.07900
C1700       C  0.89342725  0.80619945  0.17343804    -0.11200
C1701       C  0.91582549  0.77848182  0.17290240    -0.10500
C1702       C  0.91899924  0.71861231  0.17655916    -0.01400
C1703       C  0.89905183  0.68656729  0.18053573    -0.11600
C1704       C  0.87651879  0.71444395  0.18106675    -0.10000
H1705       H  0.89165351  0.85223168  0.17050708     0.07900
H1706       H  0.93077861  0.80443637  0.16971346     0.11600
H1707       H  0.90096325  0.64054550  0.18345234     0.11300
H1708       H  0.86154106  0.68917739  0.18440686     0.07900
C1709       C  0.74470337  0.95711167  0.25888359    -0.11200
C1710       C  0.73268408  0.91228979  0.25243201     0.05900
C1711       C  0.71893085  0.86904567  0.25811178    -0.10000
C1712       C  0.71755815  0.86985975  0.26987751    -0.11600
C1713       C  0.72980008  0.91408869  0.27632353    -0.01400
C1714       C  0.74318163  0.95816056  0.27069261    -0.10500
C1715       C  0.73407482  0.91149002  0.23984617     0.05900
H1716       H  0.70902395  0.83470888  0.25346954     0.07900
H1717       H  0.70700886  0.83521144  0.27394544     0.11300
H1718       H  0.75302199  0.99231788  0.27541849     0.11600
H1719       H  0.75576276  0.99074285  0.25483321     0.07900
C1720       C  0.73495288  0.96608766  0.23392459    -0.11200
C1721       C  0.73643033  0.96642846  0.22220281    -0.10500
C1722       C  0.73679042  0.91222800  0.21595137    -0.01400
C1723       C  0.73545625  0.85726664  0.22175869    -0.11600
C1724       C  0.73426058  0.85688745  0.23361539    -0.10000
H1725       H  0.73414869  0.00895982  0.23832983     0.07900
H1726       H  0.73699123  0.00975069  0.21800851     0.11600
H1727       H  0.73566233  0.81485660  0.21717295     0.11300
H1728       H  0.73381341  0.81384921  0.23789823     0.07900
loop_ 
_geom_bond_atom_site_label_1 
_geom_bond_atom_site_label_2 
_geom_bond_distance 
_geom_bond_site_symmetry_2 
_ccdc_geom_bond_type 
O1            V9   1.923       .  S
O1           C11   1.271       .  A
O2            V9   1.923   1_545  S
O2           C12   1.271   1_545  A
O3            V9   1.875       .  S
O3           C13   1.259       .  A
O4            V9   1.877       .  S
O4           C14   1.258       .  A
O5           V10   1.928       .  S
O5           C14   1.273       .  A
O6           V10   1.928       .  S
O6           C13   1.272       .  A
O7           V10   1.872       .  S
O7           C12   1.257       .  A
O8           V10   1.878       .  S
O8           C11   1.259       .  A
V9           V10   2.083       .  T
C11        C1693   1.482       .  S
C12        C1682   1.473       .  S
C13        C1722   1.484       .  S
C14        C1662   1.484       .  S
O15          V23   1.925       .  S
O15          C25   1.272       .  A
O16          V23   1.924       .  S
O16          C26   1.271       .  A
O17          V23   1.882       .  S
O17          C27   1.260       .  A
O18          V23   1.879       .  S
O18          C28   1.259       .  A
O19          V24   1.925       .  S
O19          C28   1.272       .  A
O20          V24   1.924       .  S
O20          C27   1.271       .  A
O21          V24   1.868       .  S
O21          C26   1.257       .  A
O22          V24   1.871       .  S
O22          C25   1.257       .  A
V23          V24   2.084       .  T
C25        C1633   1.479       .  S
C26        C1613   1.477       .  S
C27        C1593   1.480       .  S
C28        C1713   1.483       .  S
O29          V37   1.920       .  S
O29          C39   1.270       .  A
O30          V37   1.922   1_455  S
O30          C40   1.271       .  A
O31          V37   1.874       .  S
O31          C41   1.258       .  A
O32          V37   1.877       .  S
O32          C42   1.259       .  A
O33          V38   1.927       .  S
O33          C42   1.272       .  A
O34          V38   1.927       .  S
O34          C41   1.271       .  A
O35          V38   1.876   1_455  S
O35          C40   1.259       .  A
O36          V38   1.880       .  S
O36          C39   1.260       .  A
V37          V38   2.085       .  T
C39        C1702   1.482       .  S
C40        C1553   1.481       .  S
C41        C1573   1.478       .  S
C42        C1533   1.485       .  S
O43          V51   1.922       .  S
O43          C53   1.270       .  A
O44          V51   1.922   1_655  S
O44          C54   1.271       .  A
O45          V51   1.878       .  S
O45          C55   1.259   1_455  A
O46          V51   1.879       .  S
O46          C56   1.259   1_455  A
O47          V52   1.920       .  S
O47          C56   1.271       .  A
O48          V52   1.924       .  S
O48          C55   1.271       .  A
O49          V52   1.871       .  S
O49          C54   1.257       .  A
O50          V52   1.873   1_455  S
O50          C53   1.258       .  A
V51          V52   2.086   1_455  T
C53        C1522   1.472       .  S
C54        C1622   1.477       .  S
C55        C1493   1.482       .  S
C56        C1582   1.481       .  S
O57          V65   1.924       .  S
O57          C67   1.272       .  A
O58          V65   1.926       .  S
O58          C68   1.272       .  A
O59          V65   1.870       .  S
O59          C69   1.257       .  A
O60          V65   1.877       .  S
O60          C70   1.258       .  A
O61          V66   1.927       .  S
O61          C70   1.272       .  A
O62          V66   1.924       .  S
O62          C69   1.271       .  A
O63          V66   1.876       .  S
O63          C68   1.259       .  A
O64          V66   1.884       .  S
O64          C67   1.260       .  A
V65          V66   2.084       .  T
C67        C1433   1.487       .  S
C68        C1482   1.483       .  S
C69        C1673   1.476       .  S
C70        C1453   1.480       .  S
O71          V79   1.919       .  S
O71          C81   1.270       .  A
O72          V79   1.920       .  S
O72          C82   1.270       .  A
O73          V79   1.881       .  S
O73          C83   1.260       .  A
O74          V79   1.881       .  S
O74          C84   1.259       .  A
O75          V80   1.919       .  S
O75          C84   1.270       .  A
O76          V80   1.921       .  S
O76          C83   1.271       .  A
O77          V80   1.871       .  S
O77          C82   1.258       .  A
O78          V80   1.877       .  S
O78          C81   1.259       .  A
V79          V80   2.086       .  T
C81        C1642   1.479       .  S
C82        C1422   1.475       .  S
C83        C1393   1.483       .  S
C84        C1473   1.480       .  S
O85          V93   1.926       .  S
O85          C95   1.272       .  A
O86          V93   1.924       .  S
O86          C96   1.271       .  A
O87          V93   1.880       .  S
O87          C97   1.260       .  A
O88          V93   1.878       .  S
O88          C98   1.259       .  A
O89          V94   1.930       .  S
O89          C98   1.273       .  A
O90          V94   1.924       .  S
O90          C97   1.272       .  A
O91          V94   1.872       .  S
O91          C96   1.257       .  A
O92          V94   1.879       .  S
O92          C95   1.259       .  A
V93          V94   2.084       .  T
C95        C1462   1.486       .  S
C96        C1562   1.470       .  S
C97        C1373   1.485       .  S
C98        C1353   1.489       .  S
O99         V107   1.915       .  S
O99         C109   1.270       .  A
O100        V107   1.915       .  S
O100        C110   1.269       .  A
O101        V107   1.882       .  S
O101        C111   1.260       .  A
O102        V107   1.878       .  S
O102        C112   1.259       .  A
O103        V108   1.922       .  S
O103        C112   1.270       .  A
O104        V108   1.922       .  S
O104        C111   1.270       .  A
O105        V108   1.878       .  S
O105        C110   1.259       .  A
O106        V108   1.883       .  S
O106        C109   1.260       .  A
V107        V108   2.082       .  T
C109       C1513   1.480       .  S
C110       C1413   1.474       .  S
C111       C1333   1.476       .  S
C112       C1382   1.475       .  S
O113        V121   1.922       .  S
O113        C123   1.271       .  A
O114        V121   1.924       .  S
O114        C124   1.271       .  A
O115        V121   1.886       .  S
O115        C125   1.261       .  A
O116        V121   1.879       .  S
O116        C126   1.259       .  A
O117        V122   1.924       .  S
O117        C126   1.271       .  A
O118        V122   1.922       .  S
O118        C125   1.271       .  A
O119        V122   1.871       .  S
O119        C124   1.257       .  A
O120        V122   1.877       .  S
O120        C123   1.259       .  A
V121        V122   2.085       .  T
C123       C1293   1.481       .  S
C124       C1273   1.473       .  S
C125       C1253   1.487       .  S
C126       C1313   1.480       .  S
O127        V135   1.921       .  S
O127        C137   1.271       .  A
O128        V135   1.920   1_545  S
O128        C138   1.269   1_545  A
O129        V135   1.879       .  S
O129        C139   1.260       .  A
O130        V135   1.880       .  S
O130        C140   1.259       .  A
O131        V136   1.925       .  S
O131        C140   1.272       .  A
O132        V136   1.923       .  S
O132        C139   1.271       .  A
O133        V136   1.872       .  S
O133        C138   1.257       .  A
O134        V136   1.879       .  S
O134        C137   1.259       .  A
V135        V136   2.085       .  T
C137       C1233   1.482       .  S
C138       C1222   1.467   1_565  S
C139       C1322   1.483       .  S
C140       C1193   1.485       .  S
O141        V149   1.920       .  S
O141        C151   1.269       .  A
O142        V149   1.920       .  S
O142        C152   1.270       .  A
O143        V149   1.873       .  S
O143        C153   1.259       .  A
O144        V149   1.878       .  S
O144        C154   1.259       .  A
O145        V150   1.919       .  S
O145        C154   1.270       .  A
O146        V150   1.927       .  S
O146        C153   1.272       .  A
O147        V150   1.877       .  S
O147        C152   1.259       .  A
O148        V150   1.882       .  S
O148        C151   1.259       .  A
V149        V150   2.085       .  T
C151       C1153   1.473       .  S
C152       C1282   1.477       .  S
C153       C1133   1.483       .  S
C154       C1173   1.478       .  S
O155        V163   1.923       .  S
O155        C165   1.271       .  A
O156        V163   1.920       .  S
O156        C166   1.271       .  A
O157        V163   1.867       .  S
O157        C167   1.256       .  A
O158        V163   1.868       .  S
O158        C168   1.257       .  A
O159        V164   1.926       .  S
O159        C168   1.272       .  A
O160        V164   1.927       .  S
O160        C167   1.272       .  A
O161        V164   1.876       .  S
O161        C166   1.258       .  A
O162        V164   1.873       .  S
O162        C165   1.258       .  A
V163        V164   2.085       .  T
C165       C1242   1.479       .  S
C166       C1113   1.478       .  S
C167       C1182   1.478       .  S
C168       C1093   1.479       .  S
O169        V177   1.920       .  S
O169        C179   1.271       .  A
O170        V177   1.921       .  S
O170        C180   1.270       .  A
O171        V177   1.879       .  S
O171        C181   1.260       .  A
O172        V177   1.878       .  S
O172        C182   1.259       .  A
O173        V178   1.927       .  S
O173        C182   1.272       .  A
O174        V178   1.922       .  S
O174        C181   1.271       .  A
O175        V178   1.874       .  S
O175        C180   1.258       .  A
O176        V178   1.882       .  S
O176        C179   1.260       .  A
V177        V178   2.083       .  T
C179       C1053   1.483       .  S
C180       C1122   1.472       .  S
C181       C1073   1.482       .  S
C182       C1042   1.486       .  S
O183        V191   1.918       .  S
O183        C193   1.271       .  A
O184        V191   1.917       .  S
O184        C194   1.270       .  A
O185        V191   1.883       .  S
O185        C195   1.260       .  A
O186        V191   1.878       .  S
O186        C196   1.259       .  A
O187        V192   1.921       .  S
O187        C196   1.270       .  A
O188        V192   1.921       .  S
O188        C195   1.270       .  A
O189        V192   1.876       .  S
O189        C194   1.259       .  A
O190        V192   1.882       .  S
O190        C193   1.260       .  A
V191        V192   2.082       .  T
C193       C1162   1.482       .  S
C194       C1022   1.477       .  S
C195       C1002   1.477       .  S
C196       C1082   1.477       .  S
O197        V205   1.927       .  S
O197        C207   1.272       .  A
O198        V205   1.926       .  S
O198        C208   1.272   1_655  A
O199        V205   1.868       .  S
O199        C209   1.257       .  A
O200        V205   1.874       .  S
O200        C210   1.258       .  A
O201        V206   1.926       .  S
O201        C210   1.272       .  A
O202        V206   1.927       .  S
O202        C209   1.272       .  A
O203        V206   1.869   1_455  S
O203        C208   1.257       .  A
O204        V206   1.873       .  S
O204        C207   1.258       .  A
V205        V206   2.084       .  T
C207       C1062   1.481       .  S
C208       C1213   1.479       .  S
C209        C973   1.479       .  S
C210        C953   1.483       .  S
O211        V219   1.924   1_455  S
O211        C221   1.271       .  A
O212        V219   1.924       .  S
O212        C222   1.271       .  A
O213        V219   1.883       .  S
O213        C223   1.260       .  A
O214        V219   1.875       .  S
O214        C224   1.258       .  A
O215        V220   1.921       .  S
O215        C224   1.271       .  A
O216        V220   1.923       .  S
O216        C223   1.271       .  A
O217        V220   1.868       .  S
O217        C222   1.257       .  A
O218        V220   1.874       .  S
O218        C221   1.258   1_655  A
V219        V220   2.085       .  T
C221       C1302   1.480       .  S
C222       C1013   1.478       .  S
C223        C933   1.484       .  S
C224        C982   1.477       .  S
O225        V233   1.925       .  S
O225        C235   1.271       .  A
O226        V233   1.923       .  S
O226        C236   1.272       .  A
O227        V233   1.872       .  S
O227        C237   1.257       .  A
O228        V233   1.880       .  S
O228        C238   1.259       .  A
O229        V234   1.926       .  S
O229        C238   1.272       .  A
O230        V234   1.927       .  S
O230        C237   1.272       .  A
O231        V234   1.879       .  S
O231        C236   1.259       .  A
O232        V234   1.880       .  S
O232        C235   1.259       .  A
V233        V234   2.085       .  T
C235        C893   1.481       .  S
C236        C873   1.483       .  S
C237        C922   1.476       .  S
C238       C1033   1.486       .  S
O239        V247   1.920       .  S
O239        C249   1.270       .  A
O240        V247   1.916       .  S
O240        C250   1.269       .  A
O241        V247   1.883       .  S
O241        C251   1.260       .  A
O242        V247   1.884       .  S
O242        C252   1.261       .  A
O243        V248   1.918       .  S
O243        C252   1.270       .  A
O244        V248   1.923       .  S
O244        C251   1.270       .  A
O245        V248   1.872       .  S
O245        C250   1.258       .  A
O246        V248   1.872       .  S
O246        C249   1.257       .  A
V247        V248   2.086       .  T
C249        C853   1.471       .  S
C250        C833   1.473       .  S
C251       C1602   1.478       .  S
C252        C913   1.481       .  S
O253        V261   1.918   1_455  S
O253        C263   1.270       .  A
O254        V261   1.917       .  S
O254        C264   1.270       .  A
O255        V261   1.885       .  S
O255        C265   1.261       .  A
O256        V261   1.880       .  S
O256        C266   1.259       .  A
O257        V262   1.920       .  S
O257        C266   1.270       .  A
O258        V262   1.917       .  S
O258        C265   1.270       .  A
O259        V262   1.872       .  S
O259        C264   1.258       .  A
O260        V262   1.877   1_455  S
O260        C263   1.260       .  A
V261        V262   2.083       .  T
C263        C793   1.478       .  S
C264        C842   1.471       .  S
C265       C1502   1.481       .  S
C266        C822   1.474       .  S
O267        V275   1.926       .  S
O267        C277   1.272       .  A
O268        V275   1.926   1_545  S
O268        C278   1.271   1_645  A
O269        V275   1.875       .  S
O269        C279   1.258       .  A
O270        V275   1.872   1_545  S
O270        C280   1.258   1_545  A
O271        V276   1.928       .  S
O271        C280   1.272       .  A
O272        V276   1.924       .  S
O272        C279   1.271       .  A
O273        V276   1.872   1_455  S
O273        C278   1.257       .  A
O274        V276   1.881       .  S
O274        C277   1.260       .  A
V275        V276   2.085       .  T
C277        C902   1.487       .  S
C278        C782   1.475   1_565  S
C279        C813   1.482       .  S
C280        C962   1.483       .  S
O281        V289   1.923       .  S
O281        C291   1.271       .  A
O282        V289   1.922       .  S
O282        C292   1.271       .  A
O283        V289   1.879       .  S
O283        C293   1.259       .  A
O284        V289   1.879       .  S
O284        C294   1.259       .  A
O285        V290   1.919       .  S
O285        C294   1.271       .  A
O286        V290   1.923       .  S
O286        C293   1.270       .  A
O287        V290   1.869       .  S
O287        C292   1.257       .  A
O288        V290   1.873       .  S
O288        C291   1.258       .  A
V289        V290   2.086       .  T
C291        C802   1.480       .  S
C292        C742   1.475       .  S
C293       C1342   1.477       .  S
C294        C753   1.478       .  S
O295        V303   1.928       .  S
O295        C305   1.272       .  A
O296        V303   1.926       .  S
O296        C306   1.272       .  A
O297        V303   1.874       .  S
O297        C307   1.258       .  A
O298        V303   1.877       .  S
O298        C308   1.259       .  A
O299        V304   1.926       .  S
O299        C308   1.272       .  A
O300        V304   1.926       .  S
O300        C307   1.271       .  A
O301        V304   1.874       .  S
O301        C306   1.258       .  A
O302        V304   1.876       .  S
O302        C305   1.259       .  A
V303        V304   2.083       .  T
C305        C722   1.484       .  S
C306        C773   1.480       .  S
C307        C762   1.481       .  S
C308       C1202   1.485       .  S
O309        V317   1.920       .  S
O309        C319   1.271       .  A
O310        V317   1.923       .  S
O310        C320   1.270       .  A
O311        V317   1.882       .  S
O311        C321   1.260       .  A
O312        V317   1.878       .  S
O312        C322   1.259       .  A
O313        V318   1.916       .  S
O313        C322   1.270       .  A
O314        V318   1.914       .  S
O314        C321   1.269       .  A
O315        V318   1.878       .  S
O315        C320   1.259       .  A
O316        V318   1.885       .  S
O316        C319   1.261       .  A
V317        V318   2.085       .  T
C319        C713   1.485       .  S
C320        C882   1.472       .  S
C321        C693   1.479       .  S
C322       C1102   1.478       .  S
O323        V331   1.913       .  S
O323        C333   1.269       .  A
O324        V331   1.916       .  S
O324        C334   1.269       .  A
O325        V331   1.885       .  S
O325        C335   1.261       .  A
O326        V331   1.880       .  S
O326        C336   1.259       .  A
O327        V332   1.917       .  S
O327        C336   1.269       .  A
O328        V332   1.916       .  S
O328        C335   1.270       .  A
O329        V332   1.877       .  S
O329        C334   1.259       .  A
O330        V332   1.884       .  S
O330        C333   1.261       .  A
V331        V332   2.083       .  T
C333        C862   1.477       .  S
C334        C733   1.473       .  S
C335       C1402   1.482       .  S
C336        C702   1.472       .  S
O337        V345   1.920       .  S
O337        C347   1.270       .  A
O338        V345   1.920       .  S
O338        C348   1.270       .  A
O339        V345   1.881       .  S
O339        C349   1.260       .  A
O340        V345   1.883       .  S
O340        C350   1.260       .  A
O341        V346   1.926       .  S
O341        C350   1.272       .  A
O342        V346   1.930       .  S
O342        C349   1.272       .  A
O343        V346   1.873       .  S
O343        C348   1.258       .  A
O344        V346   1.879       .  S
O344        C347   1.259       .  A
V345        V346   2.084       .  T
C347        C653   1.479       .  S
C348        C633   1.477       .  S
C349       C1262   1.490       .  S
C350        C673   1.486       .  S
O351        V359   1.917       .  S
O351        C361   1.269       .  A
O352        V359   1.915       .  S
O352        C362   1.268       .  A
O353        V359   1.884       .  S
O353        C363   1.261       .  A
O354        V359   1.888       .  S
O354        C364   1.261       .  A
O355        V360   1.926       .  S
O355        C364   1.272       .  A
O356        V360   1.926       .  S
O356        C363   1.272       .  A
O357        V360   1.877       .  S
O357        C362   1.259       .  A
O358        V360   1.878       .  S
O358        C361   1.259       .  A
V359        V360   2.085       .  T
C361        C622   1.475       .  S
C362        C602   1.471       .  S
C363        C682   1.488       .  S
C364       C1362   1.489       .  S
O365        V373   1.919       .  S
O365        C375   1.268       .  A
O366        V373   1.918       .  S
O366        C376   1.270       .  A
O367        V373   1.879       .  S
O367        C377   1.259       .  A
O368        V373   1.880       .  S
O368        C378   1.259       .  A
O369        V374   1.919       .  S
O369        C378   1.270       .  A
O370        V374   1.923       .  S
O370        C377   1.271       .  A
O371        V374   1.875       .  S
O371        C376   1.258       .  A
O372        V374   1.876       .  S
O372        C375   1.257       .  A
V373        V374   2.086       .  T
C375        C553   1.462       .  S
C376        C542   1.477       .  S
C377        C993   1.478       .  S
C378        C573   1.479       .  S
O379        V387   1.926       .  S
O379        C389   1.272       .  A
O380        V387   1.925       .  S
O380        C390   1.271       .  A
O381        V387   1.872       .  S
O381        C391   1.258       .  A
O382        V387   1.874       .  S
O382        C392   1.258       .  A
O383        V388   1.923       .  S
O383        C392   1.271       .  A
O384        V388   1.919       .  S
O384        C391   1.270       .  A
O385        V388   1.874       .  S
O385        C390   1.258       .  A
O386        V388   1.877       .  S
O386        C389   1.259       .  A
V387        V388   2.086       .  T
C389       C1653   1.483       .  S
C390        C582   1.479       .  S
C391        C502   1.474       .  S
C392        C522   1.481       .  S
O393        V401   1.919       .  S
O393        C403   1.270       .  A
O394        V401   1.922       .  S
O394        C404   1.271       .  A
O395        V401   1.882       .  S
O395        C405   1.260       .  A
O396        V401   1.878       .  S
O396        C406   1.258       .  A
O397        V402   1.927       .  S
O397        C406   1.272       .  A
O398        V402   1.921       .  S
O398        C405   1.271       .  A
O399        V402   1.871       .  S
O399        C404   1.257       .  A
O400        V402   1.878       .  S
O400        C403   1.259       .  A
V401        V402   2.086       .  T
C403        C562   1.478       .  S
C404        C642   1.475       .  S
C405       C1142   1.483       .  S
C406        C473   1.480       .  S
O407        V415   1.917       .  S
O407        C417   1.270       .  A
O408        V415   1.916   1_545  S
O408        C418   1.268   1_545  A
O409        V415   1.884       .  S
O409        C419   1.261       .  A
O410        V415   1.879       .  S
O410        C420   1.260       .  A
O411        V416   1.928       .  S
O411        C420   1.272       .  A
O412        V416   1.924       .  S
O412        C419   1.271       .  A
O413        V416   1.872       .  S
O413        C418   1.257       .  A
O414        V416   1.879       .  S
O414        C417   1.259       .  A
V415        V416   2.085       .  T
C417        C613   1.480       .  S
C418        C493   1.466       .  S
C419        C482   1.487       .  S
C420       C1442   1.488       .  S
O421        V429   1.923   1_455  S
O421        C431   1.271       .  A
O422        V429   1.924       .  S
O422        C432   1.271       .  A
O423        V429   1.878       .  S
O423        C433   1.259       .  A
O424        V429   1.874       .  S
O424        C434   1.258       .  A
O425        V430   1.927       .  S
O425        C434   1.272       .  A
O426        V430   1.929       .  S
O426        C433   1.272       .  A
O427        V430   1.868       .  S
O427        C432   1.257       .  A
O428        V430   1.874       .  S
O428        C431   1.258   1_655  A
V429        V430   2.085       .  T
C431        C662   1.475       .  S
C432        C533   1.476       .  S
C433        C942   1.486       .  S
C434        C453   1.483       .  S
O435        V443   1.921       .  S
O435        C445   1.271       .  A
O436        V443   1.922       .  S
O436        C446   1.270   1_655  A
O437        V443   1.873       .  S
O437        C447   1.258       .  A
O438        V443   1.877       .  S
O438        C448   1.259       .  A
O439        V444   1.928       .  S
O439        C448   1.273       .  A
O440        V444   1.927       .  S
O440        C447   1.272       .  A
O441        V444   1.870   1_455  S
O441        C446   1.257       .  A
O442        V444   1.878       .  S
O442        C445   1.259       .  A
V443        V444   2.086       .  T
C445        C513   1.481       .  S
C446        C593   1.473       .  S
C447        C462   1.479       .  S
C448       C1542   1.486       .  S
C449        C450   1.413       .  A
C449        C454   1.404       .  A
C449        H459   1.082       .  S
C450        C455   1.491   1_556  S
C450        C451   1.401       .  A
C451        C452   1.393       .  A
C451        H456   1.083       .  S
C452        C453   1.409       .  A
C452        H457   1.083       .  S
C453        C454   1.402       .  A
C454        H458   1.083       .  S
C455        C460   1.413       .  A
C455        C464   1.402       .  A
C460        C461   1.404       .  A
C460        H465   1.082       .  S
C461        C462   1.402       .  A
C461        H466   1.083       .  S
C462        C463   1.407       .  A
C463        C464   1.393       .  A
C463        H467   1.083       .  S
C464        H468   1.083       .  S
C469        C470   1.405       .  A
C469        C474   1.396       .  A
C469        H479   1.082       .  S
C470        C475   1.497       .  S
C470        C471   1.413       .  A
C471        C472   1.405       .  A
C471        H476   1.082       .  S
C472        C473   1.402       .  A
C472        H477   1.083       .  S
C473        C474   1.406       .  A
C474        H478   1.083       .  S
C475        C480   1.413   1_556  A
C475        C484   1.404   1_556  A
C480        C481   1.405       .  A
C480        H485   1.082   1_554  S
C481        C482   1.404       .  A
C481        H486   1.083       .  S
C482        C483   1.408       .  A
C483        C484   1.396       .  A
C483        H487   1.083       .  S
C484        H488   1.082   1_564  S
C489        C490   1.402   1_565  A
C489        C494   1.391       .  A
C489        H499   1.083       .  S
C490        C495   1.482       .  S
C490        C491   1.411       .  A
C491        C492   1.400       .  A
C491        H496   1.082       .  S
C492        C493   1.400   1_545  A
C492        H497   1.083       .  S
C493        C494   1.404       .  A
C494        H498   1.084       .  S
C495        C500   1.411       .  A
C495        C504   1.400       .  A
C500        C501   1.400       .  A
C500        H505   1.082   1_545  S
C501        C502   1.401       .  A
C501        H506   1.083   1_545  S
C502        C503   1.408       .  A
C503        C504   1.391       .  A
C503        H507   1.083       .  S
C504        H508   1.083       .  S
C509        C510   1.401       .  A
C509        C514   1.394       .  A
C509        H519   1.083       .  S
C510        C515   1.486       .  S
C510        C511   1.410       .  A
C511        C512   1.402       .  A
C511        H516   1.082       .  S
C512        C513   1.403       .  A
C512        H517   1.083       .  S
C513        C514   1.409       .  A
C514        H518   1.083       .  S
C515        C520   1.411       .  A
C515        C524   1.401       .  A
C520        C521   1.404       .  A
C520        H525   1.082       .  S
C521        C522   1.403       .  A
C521        H526   1.083       .  S
C522        C523   1.408       .  A
C523        C524   1.392       .  A
C523        H527   1.083       .  S
C524        H528   1.083       .  S
C529        C530   1.400       .  A
C529        C534   1.389       .  A
C529        H539   1.083       .  S
C530        C535   1.482       .  S
C530        C531   1.411       .  A
C531        C532   1.404       .  A
C531        H536   1.083       .  S
C532        C533   1.403       .  A
C532        H537   1.083       .  S
C533        C534   1.407       .  A
C534        H538   1.083       .  S
C535        C540   1.410       .  A
C535        C544   1.400       .  A
C540        C541   1.400       .  A
C540        H545   1.083       .  S
C541        C542   1.401       .  A
C541        H546   1.083       .  S
C542        C543   1.409       .  A
C543        C544   1.393       .  A
C543        H547   1.083       .  S
C544        H548   1.083       .  S
C549        C550   1.405       .  A
C549        C554   1.396       .  A
C549        H559   1.083       .  S
C550        C555   1.483       .  S
C550        C551   1.408       .  A
C551        C552   1.400       .  A
C551        H556   1.083       .  S
C552        C553   1.401       .  A
C552        H557   1.083       .  S
C553        C554   1.401       .  A
C554        H558   1.084       .  S
C555        C560   1.409   1_545  A
C555        C564   1.401       .  A
C560        C561   1.401       .  A
C560        H565   1.083       .  S
C561        C562   1.402       .  A
C561        H566   1.083       .  S
C562        C563   1.408   1_565  A
C563        C564   1.394       .  A
C563        H567   1.083       .  S
C564        H568   1.083       .  S
C569        C570   1.412       .  A
C569        C574   1.401       .  A
C569        H579   1.082       .  S
C570        C575   1.491   1_556  S
C570        C571   1.403       .  A
C571        C572   1.395       .  A
C571        H576   1.083       .  S
C572        C573   1.407       .  A
C572        H577   1.083       .  S
C573        C574   1.402       .  A
C574        H578   1.083       .  S
C575        C580   1.402       .  A
C575        C584   1.413       .  A
C580        C581   1.392       .  A
C580        H585   1.083       .  S
C581        C582   1.407       .  A
C581        H586   1.083       .  S
C582        C583   1.402       .  A
C583        C584   1.405       .  A
C583        H587   1.083       .  S
C584        H588   1.082       .  S
C589        C590   1.412       .  A
C589        C594   1.401       .  A
C589        H599   1.082       .  S
C590        C595   1.487       .  S
C590        C591   1.402       .  A
C591        C592   1.391       .  A
C591        H596   1.083       .  S
C592        C593   1.406       .  A
C592        H597   1.084       .  S
C593        C594   1.400       .  A
C594        H598   1.083       .  S
C595        C600   1.403       .  A
C595        C604   1.412       .  A
C600        C601   1.393       .  A
C600        H605   1.083       .  S
C601        C602   1.405       .  A
C601        H606   1.084       .  S
C602        C603   1.399       .  A
C603        C604   1.400       .  A
C603        H607   1.083       .  S
C604        H608   1.082       .  S
C609        C610   1.409       .  A
C609        C614   1.401       .  A
C609        H619   1.083       .  S
C610        C615   1.484       .  S
C610        C611   1.401       .  A
C611        C612   1.394       .  A
C611        H616   1.083       .  S
C612        C613   1.408       .  A
C612        H617   1.083       .  S
C613        C614   1.403       .  A
C614        H618   1.083       .  S
C615        C620   1.402       .  A
C615        C624   1.409       .  A
C620        C621   1.394       .  A
C620        H625   1.083       .  S
C621        C622   1.406       .  A
C621        H626   1.083       .  S
C622        C623   1.402       .  A
C623        C624   1.400       .  A
C623        H627   1.083       .  S
C624        H628   1.083       .  S
C629        C630   1.401       .  A
C629        C634   1.392       .  A
C629        H639   1.083       .  S
C630        C635   1.484       .  S
C630        C631   1.411       .  A
C631        C632   1.401       .  A
C631        H636   1.083       .  S
C632        C633   1.401       .  A
C632        H637   1.083       .  S
C633        C634   1.408       .  A
C634        H638   1.083       .  S
C635        C640   1.411       .  A
C635        C644   1.401       .  A
C640        C641   1.402       .  A
C640        H645   1.082       .  S
C641        C642   1.402       .  A
C641        H646   1.083       .  S
C642        C643   1.407       .  A
C643        C644   1.390       .  A
C643        H647   1.083       .  S
C644        H648   1.083       .  S
C649        C650   1.403       .  A
C649        C654   1.393       .  A
C649        H659   1.082       .  S
C650        C655   1.491       .  S
C650        C651   1.413       .  A
C651        C652   1.403       .  A
C651        H656   1.082       .  S
C652        C653   1.402       .  A
C652        H657   1.083       .  S
C653        C654   1.406       .  A
C654        H658   1.083       .  S
C655        C660   1.413       .  A
C655        C664   1.403       .  A
C660        C661   1.402       .  A
C660        H665   1.082       .  S
C661        C662   1.400       .  A
C661        H666   1.083       .  S
C662        C663   1.406       .  A
C663        C664   1.394       .  A
C663        H667   1.084       .  S
C664        H668   1.082       .  S
C669        C670   1.405       .  A
C669        C674   1.398       .  A
C669        H679   1.082       .  S
C670        C675   1.500       .  S
C670        C671   1.414       .  A
C671        C672   1.405       .  A
C671        H676   1.082       .  S
C672        C673   1.402       .  A
C672        H677   1.083       .  S
C673        C674   1.408       .  A
C674        H678   1.083       .  S
C675        C680   1.414   1_556  A
C675        C684   1.404   1_556  A
C680        C681   1.407       .  A
C680        H685   1.082       .  S
C681        C682   1.404       .  A
C681        H686   1.083       .  S
C682        C683   1.408       .  A
C683        C684   1.396       .  A
C683        H687   1.083       .  S
C684        H688   1.082   1_554  S
C689        C690   1.403       .  A
C689        C694   1.394       .  A
C689        H699   1.083       .  S
C690        C695   1.488       .  S
C690        C691   1.410       .  A
C691        C692   1.400       .  A
C691        H696   1.083       .  S
C692        C693   1.403       .  A
C692        H697   1.083       .  S
C693        C694   1.407       .  A
C694        H698   1.083       .  S
C695        C700   1.410       .  A
C695        C704   1.404       .  A
C700        C701   1.401       .  A
C700        H705   1.082       .  S
C701        C702   1.402       .  A
C701        H706   1.083       .  S
C702        C703   1.404       .  A
C703        C704   1.394       .  A
C703        H707   1.084       .  S
C704        H708   1.083       .  S
C709        C710   1.402       .  A
C709        C714   1.398       .  A
C709        H719   1.083       .  S
C710        C715   1.489       .  S
C710        C711   1.410       .  A
C711        C712   1.402       .  A
C711        H716   1.082       .  S
C712        C713   1.403       .  A
C712        H717   1.083       .  S
C713        C714   1.410       .  A
C714        H718   1.082       .  S
C715        C720   1.411       .  A
C715        C724   1.401       .  A
C720        C721   1.406       .  A
C720        H725   1.082       .  S
C721        C722   1.404       .  A
C721        H726   1.083       .  S
C722        C723   1.408       .  A
C723        C724   1.393       .  A
C723        H727   1.083       .  S
C724        H728   1.083       .  S
C729        C730   1.404       .  A
C729        C734   1.392       .  A
C729        H739   1.083       .  S
C730        C735   1.487       .  S
C730        C731   1.410       .  A
C731        C732   1.401       .  A
C731        H736   1.082       .  S
C732        C733   1.402       .  A
C732        H737   1.083       .  S
C733        C734   1.404       .  A
C734        H738   1.083       .  S
C735        C740   1.412       .  A
C735        C744   1.401       .  A
C740        C741   1.401       .  A
C740        H745   1.082       .  S
C741        C742   1.401       .  A
C741        H746   1.083       .  S
C742        C743   1.407       .  A
C743        C744   1.391       .  A
C743        H747   1.083       .  S
C744        H748   1.083       .  S
C749        C750   1.411       .  A
C749        C754   1.400       .  A
C749        H759   1.082       .  S
C750        C755   1.488       .  S
C750        C751   1.403       .  A
C751        C752   1.396       .  A
C751        H756   1.083       .  S
C752        C753   1.408       .  A
C752        H757   1.083       .  S
C753        C754   1.401       .  A
C754        H758   1.083       .  S
C755        C760   1.401       .  A
C755        C764   1.412       .  A
C760        C761   1.391       .  A
C760        H765   1.083       .  S
C761        C762   1.408       .  A
C761        H766   1.083       .  S
C762        C763   1.403       .  A
C763        C764   1.405       .  A
C763        H767   1.083       .  S
C764        H768   1.083       .  S
C769        C770   1.412       .  A
C769        C774   1.404       .  A
C769        H779   1.083   1_545  S
C770        C775   1.487       .  S
C770        C771   1.401       .  A
C771        C772   1.393       .  A
C771        H776   1.083       .  S
C772        C773   1.408       .  A
C772        H777   1.083       .  S
C773        C774   1.402       .  A
C774        H778   1.083   1_545  S
C775        C780   1.401   1_545  A
C775        C784   1.412       .  A
C780        C781   1.393       .  A
C780        H785   1.083       .  S
C781        C782   1.406   1_565  A
C781        H786   1.084       .  S
C782        C783   1.401       .  A
C783        C784   1.404       .  A
C783        H787   1.083       .  S
C784        H788   1.083       .  S
C789        C790   1.401       .  A
C789        C794   1.392       .  A
C789        H799   1.083       .  S
C790        C795   1.484       .  S
C790        C791   1.410   1_545  A
C791        C792   1.402       .  A
C791        H796   1.083       .  S
C792        C793   1.403       .  A
C792        H797   1.083       .  S
C793        C794   1.407   1_565  A
C794        H798   1.083       .  S
C795        C800   1.400       .  A
C795        C804   1.410       .  A
C800        C801   1.393       .  A
C800        H805   1.083       .  S
C801        C802   1.409       .  A
C801        H806   1.083       .  S
C802        C803   1.402       .  A
C803        C804   1.402       .  A
C803        H807   1.083       .  S
C804        H808   1.083       .  S
C809        C810   1.413       .  A
C809        C814   1.403       .  A
C809        H819   1.082       .  S
C810        C815   1.494       .  S
C810        C811   1.403       .  A
C811        C812   1.393       .  A
C811        H816   1.082   1_565  S
C812        C813   1.408       .  A
C812        H817   1.083   1_565  S
C813        C814   1.402       .  A
C814        H818   1.083       .  S
C815        C820   1.406       .  A
C815        C824   1.412       .  A
C820        C821   1.396       .  A
C820        H825   1.082   1_655  S
C821        C822   1.404       .  A
C821        H826   1.083   1_655  S
C822        C823   1.401       .  A
C823        C824   1.401       .  A
C823        H827   1.083       .  S
C824        H828   1.082       .  S
C829        C830   1.410       .  A
C829        C834   1.400       .  A
C829        H839   1.083       .  S
C830        C835   1.482       .  S
C830        C831   1.401       .  A
C831        C832   1.389       .  A
C831        H836   1.083       .  S
C832        C833   1.406       .  A
C832        H837   1.083       .  S
C833        C834   1.402       .  A
C834        H838   1.083       .  S
C835        C840   1.402       .  A
C835        C844   1.410       .  A
C840        C841   1.391       .  A
C840        H845   1.083       .  S
C841        C842   1.405       .  A
C841        H846   1.083       .  S
C842        C843   1.401       .  A
C843        C844   1.399       .  A
C843        H847   1.083       .  S
C844        H848   1.082       .  S
C849        C850   1.412       .  A
C849        C854   1.402       .  A
C849        H859   1.082       .  S
C850        C855   1.489       .  S
C850        C851   1.403       .  A
C851        C852   1.391       .  A
C851        H856   1.082       .  S
C852        C853   1.404       .  A
C852        H857   1.084       .  S
C853        C854   1.400       .  A
C854        H858   1.083       .  S
C855        C860   1.403       .  A
C855        C864   1.411       .  A
C860        C861   1.394       .  A
C860        H865   1.082       .  S
C861        C862   1.406       .  A
C861        H866   1.083       .  S
C862        C863   1.402       .  A
C863        C864   1.400       .  A
C863        H867   1.083       .  S
C864        H868   1.082       .  S
C869        C870   1.403       .  A
C869        C874   1.396       .  A
C869        H879   1.083       .  S
C870        C875   1.491       .  S
C870        C871   1.412       .  A
C871        C872   1.401       .  A
C871        H876   1.082       .  S
C872        C873   1.401       .  A
C872        H877   1.083       .  S
C873        C874   1.410       .  A
C874        H878   1.083       .  S
C875        C880   1.412       .  A
C875        C884   1.404       .  A
C880        C881   1.404       .  A
C880        H885   1.082       .  S
C881        C882   1.402       .  A
C881        H886   1.083       .  S
C882        C883   1.403       .  A
C883        C884   1.394       .  A
C883        H887   1.084       .  S
C884        H888   1.083       .  S
C889        C890   1.403       .  A
C889        C894   1.396       .  A
C889        H899   1.083       .  S
C890        C895   1.492       .  S
C890        C891   1.411       .  A
C891        C892   1.405       .  A
C891        H896   1.082       .  S
C892        C893   1.403       .  A
C892        H897   1.083       .  S
C893        C894   1.407       .  A
C894        H898   1.083       .  S
C895        C900   1.412       .  A
C895        C904   1.402       .  A
C900        C901   1.405       .  A
C900        H905   1.082       .  S
C901        C902   1.403       .  A
C901        H906   1.083       .  S
C902        C903   1.409       .  A
C903        C904   1.396       .  A
C903        H907   1.083       .  S
C904        H908   1.083       .  S
C909        C910   1.411       .  A
C909        C914   1.401       .  A
C909        H919   1.083       .  S
C910        C915   1.489       .  S
C910        C911   1.403       .  A
C911        C912   1.396       .  A
C911        H916   1.083       .  S
C912        C913   1.408       .  A
C912        H917   1.083       .  S
C913        C914   1.403       .  A
C914        H918   1.083       .  S
C915        C920   1.412       .  A
C915        C924   1.402       .  A
C920        C921   1.405       .  A
C920        H925   1.082       .  S
C921        C922   1.402       .  A
C921        H926   1.083       .  S
C922        C923   1.406       .  A
C923        C924   1.393       .  A
C923        H927   1.083       .  S
C924        H928   1.083       .  S
C929        C930   1.402       .  A
C929        C934   1.396       .  A
C929        H939   1.083       .  S
C930        C935   1.492       .  S
C930        C931   1.411       .  A
C931        C932   1.404       .  A
C931        H936   1.083       .  S
C932        C933   1.403       .  A
C932        H937   1.083       .  S
C933        C934   1.409       .  A
C934        H938   1.083       .  S
C935        C940   1.402       .  A
C935        C944   1.412       .  A
C940        C941   1.394       .  A
C940        H945   1.083       .  S
C941        C942   1.409       .  A
C941        H946   1.083       .  S
C942        C943   1.404       .  A
C943        C944   1.406       .  A
C943        H947   1.083       .  S
C944        H948   1.083       .  S
C949        C950   1.412       .  A
C949        C954   1.404       .  A
C949        H959   1.082       .  S
C950        C955   1.488       .  S
C950        C951   1.400   1_545  A
C951        C952   1.393   1_565  A
C951        H956   1.083       .  S
C952        C953   1.409       .  A
C952        H957   1.083   1_545  S
C953        C954   1.403       .  A
C954        H958   1.083       .  S
C955        C960   1.400       .  A
C955        C964   1.412   1_545  A
C960        C961   1.392       .  A
C960        H965   1.083       .  S
C961        C962   1.410   1_545  A
C961        H966   1.083       .  S
C962        C963   1.403       .  A
C963        C964   1.405       .  A
C963        H967   1.083       .  S
C964        H968   1.082       .  S
C969        C970   1.412       .  A
C969        C974   1.404       .  A
C969        H979   1.083       .  S
C970        C975   1.486       .  S
C970        C971   1.400       .  A
C971        C972   1.390       .  A
C971        H976   1.083       .  S
C972        C973   1.408       .  A
C972        H977   1.083       .  S
C973        C974   1.402       .  A
C974        H978   1.083       .  S
C975        C980   1.401       .  A
C975        C984   1.411       .  A
C980        C981   1.393       .  A
C980        H985   1.083   1_655  S
C981        C982   1.407       .  A
C981        H986   1.083   1_655  S
C982        C983   1.402       .  A
C983        C984   1.401       .  A
C983        H987   1.083       .  S
C984        H988   1.083       .  S
C989        C990   1.404       .  A
C989        C994   1.394       .  A
C989        H999   1.082       .  S
C990        C995   1.495       .  S
C990        C991   1.414       .  A
C991        C992   1.404       .  A
C991        H996   1.082       .  S
C992        C993   1.402       .  A
C992        H997   1.083       .  S
C993        C994   1.405       .  A
C994        H998   1.084       .  S
C995       C1000   1.413       .  A
C995       C1004   1.405       .  A
C1000      C1001   1.402       .  A
C1000      H1005   1.082       .  S
C1001      C1002   1.401       .  A
C1001      H1006   1.083       .  S
C1002      C1003   1.405       .  A
C1003      C1004   1.396       .  A
C1003      H1007   1.084       .  S
C1004      H1008   1.082       .  S
C1009      C1010   1.411       .  A
C1009      C1014   1.403       .  A
C1009      H1019   1.082       .  S
C1010      C1015   1.484       .  S
C1010      C1011   1.400       .  A
C1011      C1012   1.389       .  A
C1011      H1016   1.083       .  S
C1012      C1013   1.408       .  A
C1012      H1017   1.083       .  S
C1013      C1014   1.402       .  A
C1014      H1018   1.083       .  S
C1015      C1020   1.401       .  A
C1015      C1024   1.411       .  A
C1020      C1021   1.391       .  A
C1020      H1025   1.083       .  S
C1021      C1022   1.407       .  A
C1021      H1026   1.083       .  S
C1022      C1023   1.403       .  A
C1023      C1024   1.401       .  A
C1023      H1027   1.083       .  S
C1024      H1028   1.083       .  S
C1029      C1030   1.401       .  A
C1029      C1034   1.396       .  A
C1029      H1039   1.083       .  S
C1030      C1035   1.490       .  S
C1030      C1031   1.411       .  A
C1031      C1032   1.405       .  A
C1031      H1036   1.082       .  S
C1032      C1033   1.404       .  A
C1032      H1037   1.083       .  S
C1033      C1034   1.409       .  A
C1034      H1038   1.083       .  S
C1035      C1040   1.411       .  A
C1035      C1044   1.401       .  A
C1040      C1041   1.406       .  A
C1040      H1045   1.082       .  S
C1041      C1042   1.405       .  A
C1041      H1046   1.083       .  S
C1042      C1043   1.409       .  A
C1043      C1044   1.394       .  A
C1043      H1047   1.083       .  S
C1044      H1048   1.083       .  S
C1049      C1050   1.410       .  A
C1049      C1054   1.402       .  A
C1049      H1059   1.083       .  S
C1050      C1055   1.488       .  S
C1050      C1051   1.402       .  A
C1051      C1052   1.396       .  A
C1051      H1056   1.083       .  S
C1052      C1053   1.409       .  A
C1052      H1057   1.083       .  S
C1053      C1054   1.403       .  A
C1054      H1058   1.083       .  S
C1055      C1060   1.401       .  A
C1055      C1064   1.411       .  A
C1060      C1061   1.392       .  A
C1060      H1065   1.083       .  S
C1061      C1062   1.407       .  A
C1061      H1066   1.083       .  S
C1062      C1063   1.403       .  A
C1063      C1064   1.405       .  A
C1063      H1067   1.083       .  S
C1064      H1068   1.082       .  S
C1069      C1070   1.412       .  A
C1069      C1074   1.403       .  A
C1069      H1079   1.082       .  S
C1070      C1075   1.490       .  S
C1070      C1071   1.402       .  A
C1071      C1072   1.393       .  A
C1071      H1076   1.083       .  S
C1072      C1073   1.408       .  A
C1072      H1077   1.083       .  S
C1073      C1074   1.403       .  A
C1074      H1078   1.083       .  S
C1075      C1080   1.403       .  A
C1075      C1084   1.411       .  A
C1080      C1081   1.394       .  A
C1080      H1085   1.083       .  S
C1081      C1082   1.406       .  A
C1081      H1086   1.083       .  S
C1082      C1083   1.402       .  A
C1083      C1084   1.402       .  A
C1083      H1087   1.083       .  S
C1084      H1088   1.082       .  S
C1089      C1090   1.411       .  A
C1089      C1094   1.405       .  A
C1089      H1099   1.082       .  S
C1090      C1095   1.482       .  S
C1090      C1091   1.399       .  A
C1091      C1092   1.389       .  A
C1091      H1096   1.084       .  S
C1092      C1093   1.408       .  A
C1092      H1097   1.083       .  S
C1093      C1094   1.403       .  A
C1094      H1098   1.083       .  S
C1095      C1100   1.401       .  A
C1095      C1104   1.409       .  A
C1100      C1101   1.394       .  A
C1100      H1105   1.083       .  S
C1101      C1102   1.409       .  A
C1101      H1106   1.083       .  S
C1102      C1103   1.402       .  A
C1103      C1104   1.399       .  A
C1103      H1107   1.083       .  S
C1104      H1108   1.083       .  S
C1109      C1110   1.402       .  A
C1109      C1114   1.395       .  A
C1109      H1119   1.083       .  S
C1110      C1115   1.488       .  S
C1110      C1111   1.411       .  A
C1111      C1112   1.400       .  A
C1111      H1116   1.082       .  S
C1112      C1113   1.400       .  A
C1112      H1117   1.083       .  S
C1113      C1114   1.409       .  A
C1114      H1118   1.083       .  S
C1115      C1120   1.412       .  A
C1115      C1124   1.403       .  A
C1120      C1121   1.403       .  A
C1120      H1125   1.082       .  S
C1121      C1122   1.402       .  A
C1121      H1126   1.083       .  S
C1122      C1123   1.404       .  A
C1123      C1124   1.391       .  A
C1123      H1127   1.084       .  S
C1124      H1128   1.083       .  S
C1129      C1130   1.400       .  A
C1129      C1134   1.391       .  A
C1129      H1139   1.083       .  S
C1130      C1135   1.487       .  S
C1130      C1131   1.411       .  A
C1131      C1132   1.406       .  A
C1131      H1136   1.083       .  S
C1132      C1133   1.404       .  A
C1132      H1137   1.083       .  S
C1133      C1134   1.408       .  A
C1134      H1138   1.083       .  S
C1135      C1140   1.402       .  A
C1135      C1144   1.410       .  A
C1140      C1141   1.396       .  A
C1140      H1145   1.083       .  S
C1141      C1142   1.409       .  A
C1141      H1146   1.083       .  S
C1142      C1143   1.403       .  A
C1143      C1144   1.402       .  A
C1143      H1147   1.083       .  S
C1144      H1148   1.083       .  S
C1149      C1150   1.412       .  A
C1149      C1154   1.404       .  A
C1149      H1159   1.082       .  S
C1150      C1155   1.493       .  S
C1150      C1151   1.406       .  A
C1151      C1152   1.394       .  A
C1151      H1156   1.082       .  S
C1152      C1153   1.402       .  A
C1152      H1157   1.084       .  S
C1153      C1154   1.402       .  A
C1154      H1158   1.083       .  S
C1155      C1160   1.404       .  A
C1155      C1164   1.411       .  A
C1160      C1161   1.397       .  A
C1160      H1165   1.082       .  S
C1161      C1162   1.408       .  A
C1161      H1166   1.083       .  S
C1162      C1163   1.402       .  A
C1163      C1164   1.401       .  A
C1163      H1167   1.083       .  S
C1164      H1168   1.082       .  S
C1169      C1170   1.411       .  A
C1169      C1174   1.402       .  A
C1169      H1179   1.083       .  S
C1170      C1175   1.487       .  S
C1170      C1171   1.402       .  A
C1171      C1172   1.393       .  A
C1171      H1176   1.083       .  S
C1172      C1173   1.407       .  A
C1172      H1177   1.083       .  S
C1173      C1174   1.402       .  A
C1174      H1178   1.083       .  S
C1175      C1180   1.401       .  A
C1175      C1184   1.412       .  A
C1180      C1181   1.391       .  A
C1180      H1185   1.083       .  S
C1181      C1182   1.408       .  A
C1181      H1186   1.083       .  S
C1182      C1183   1.401       .  A
C1183      C1184   1.403       .  A
C1183      H1187   1.083       .  S
C1184      H1188   1.082       .  S
C1189      C1190   1.401       .  A
C1189      C1194   1.396       .  A
C1189      H1199   1.083       .  S
C1190      C1195   1.489       .  S
C1190      C1191   1.411   1_545  A
C1191      C1192   1.404       .  A
C1191      H1196   1.082       .  S
C1192      C1193   1.403       .  A
C1192      H1197   1.083       .  S
C1193      C1194   1.409   1_565  A
C1194      H1198   1.083       .  S
C1195      C1200   1.411       .  A
C1195      C1204   1.401       .  A
C1200      C1201   1.405       .  A
C1200      H1205   1.082       .  S
C1201      C1202   1.404       .  A
C1201      H1206   1.083       .  S
C1202      C1203   1.409       .  A
C1203      C1204   1.394       .  A
C1203      H1207   1.083   1_545  S
C1204      H1208   1.083   1_545  S
C1209      C1210   1.400       .  A
C1209      C1214   1.390       .  A
C1209      H1219   1.083       .  S
C1210      C1215   1.486       .  S
C1210      C1211   1.412   1_545  A
C1211      C1212   1.403   1_565  A
C1211      H1216   1.082       .  S
C1212      C1213   1.402       .  A
C1212      H1217   1.083   1_545  S
C1213      C1214   1.408       .  A
C1214      H1218   1.083       .  S
C1215      C1220   1.412       .  A
C1215      C1224   1.402   1_545  A
C1220      C1221   1.401       .  A
C1220      H1225   1.082       .  S
C1221      C1222   1.399       .  A
C1221      H1226   1.083       .  S
C1222      C1223   1.404   1_545  A
C1223      C1224   1.393       .  A
C1223      H1227   1.084       .  S
C1224      H1228   1.083       .  S
C1229      C1230   1.410       .  A
C1229      C1234   1.401       .  A
C1229      H1239   1.083       .  S
C1230      C1235   1.485       .  S
C1230      C1231   1.400       .  A
C1231      C1232   1.395       .  A
C1231      H1236   1.083       .  S
C1232      C1233   1.409       .  A
C1232      H1237   1.083       .  S
C1233      C1234   1.402       .  A
C1234      H1238   1.083       .  S
C1235      C1240   1.400       .  A
C1235      C1244   1.410       .  A
C1240      C1241   1.391       .  A
C1240      H1245   1.083       .  S
C1241      C1242   1.408       .  A
C1241      H1246   1.083       .  S
C1242      C1243   1.403       .  A
C1243      C1244   1.404       .  A
C1243      H1247   1.083       .  S
C1244      H1248   1.082       .  S
C1249      C1250   1.402       .  A
C1249      C1254   1.398       .  A
C1249      H1259   1.083       .  S
C1250      C1255   1.491       .  S
C1250      C1251   1.411       .  A
C1251      C1252   1.404       .  A
C1251      H1256   1.083       .  S
C1252      C1253   1.404       .  A
C1252      H1257   1.083       .  S
C1253      C1254   1.410       .  A
C1254      H1258   1.083       .  S
C1255      C1260   1.401       .  A
C1255      C1264   1.411       .  A
C1260      C1261   1.394       .  A
C1260      H1265   1.083       .  S
C1261      C1262   1.409       .  A
C1261      H1266   1.083       .  S
C1262      C1263   1.406       .  A
C1263      C1264   1.408       .  A
C1263      H1267   1.083       .  S
C1264      H1268   1.083       .  S
C1269      C1270   1.402       .  A
C1269      C1274   1.391       .  A
C1269      H1279   1.083       .  S
C1270      C1275   1.485       .  S
C1270      C1271   1.411       .  A
C1271      C1272   1.403       .  A
C1271      H1276   1.083       .  S
C1272      C1273   1.402       .  A
C1272      H1277   1.083       .  S
C1273      C1274   1.405       .  A
C1274      H1278   1.083       .  S
C1275      C1280   1.411       .  A
C1275      C1284   1.401       .  A
C1280      C1281   1.402       .  A
C1280      H1285   1.083       .  S
C1281      C1282   1.402       .  A
C1281      H1286   1.083       .  S
C1282      C1283   1.407       .  A
C1283      C1284   1.393       .  A
C1283      H1287   1.083       .  S
C1284      H1288   1.083       .  S
C1289      C1290   1.411       .  A
C1289      C1294   1.403       .  A
C1289      H1299   1.083       .  S
C1290      C1295   1.486   1_565  S
C1290      C1291   1.401   1_565  A
C1291      C1292   1.393   1_545  A
C1291      H1296   1.083       .  S
C1292      C1293   1.408       .  A
C1292      H1297   1.083   1_565  S
C1293      C1294   1.403       .  A
C1294      H1298   1.083       .  S
C1295      C1300   1.411       .  A
C1295      C1304   1.400       .  A
C1300      C1301   1.403       .  A
C1300      H1305   1.083       .  S
C1301      C1302   1.402       .  A
C1301      H1306   1.083       .  S
C1302      C1303   1.409       .  A
C1303      C1304   1.393       .  A
C1303      H1307   1.083       .  S
C1304      H1308   1.083   1_545  S
C1309      C1310   1.404       .  A
C1309      C1314   1.396       .  A
C1309      H1319   1.083       .  S
C1310      C1315   1.493       .  S
C1310      C1311   1.412       .  A
C1311      C1312   1.402       .  A
C1311      H1316   1.082       .  S
C1312      C1313   1.402       .  A
C1312      H1317   1.083       .  S
C1313      C1314   1.407       .  A
C1314      H1318   1.083       .  S
C1315      C1320   1.413       .  A
C1315      C1324   1.402       .  A
C1320      C1321   1.405       .  A
C1320      H1325   1.082       .  S
C1321      C1322   1.403       .  A
C1321      H1326   1.083       .  S
C1322      C1323   1.408       .  A
C1323      C1324   1.393       .  A
C1323      H1327   1.083   1_565  S
C1324      H1328   1.082   1_565  S
C1329      C1330   1.405       .  A
C1329      C1334   1.395       .  A
C1329      H1339   1.082       .  S
C1330      C1335   1.497       .  S
C1330      C1331   1.415       .  A
C1331      C1332   1.404       .  A
C1331      H1336   1.082       .  S
C1332      C1333   1.400       .  A
C1332      H1337   1.083       .  S
C1333      C1334   1.404       .  A
C1334      H1338   1.084       .  S
C1335      C1340   1.415       .  A
C1335      C1344   1.405       .  A
C1340      C1341   1.404       .  A
C1340      H1345   1.082       .  S
C1341      C1342   1.400       .  A
C1341      H1346   1.083       .  S
C1342      C1343   1.405       .  A
C1343      C1344   1.395       .  A
C1343      H1347   1.084       .  S
C1344      H1348   1.082       .  S
C1349      C1350   1.401       .  A
C1349      C1354   1.395       .  A
C1349      H1359   1.083       .  S
C1350      C1355   1.491       .  S
C1350      C1351   1.411       .  A
C1351      C1352   1.408       .  A
C1351      H1356   1.082       .  S
C1352      C1353   1.405       .  A
C1352      H1357   1.083       .  S
C1353      C1354   1.410       .  A
C1354      H1358   1.083       .  S
C1355      C1360   1.410       .  A
C1355      C1364   1.402       .  A
C1360      C1361   1.406       .  A
C1360      H1365   1.083       .  S
C1361      C1362   1.405       .  A
C1361      H1366   1.083       .  S
C1362      C1363   1.409       .  A
C1363      C1364   1.399       .  A
C1363      H1367   1.083       .  S
C1364      H1368   1.083       .  S
C1369      C1370   1.411       .  A
C1369      C1374   1.403       .  A
C1369      H1379   1.083       .  S
C1370      C1375   1.489       .  S
C1370      C1371   1.402       .  A
C1371      C1372   1.395       .  A
C1371      H1376   1.083       .  S
C1372      C1373   1.409       .  A
C1372      H1377   1.083       .  S
C1373      C1374   1.403       .  A
C1374      H1378   1.083       .  S
C1375      C1380   1.403       .  A
C1375      C1384   1.411       .  A
C1380      C1381   1.394       .  A
C1380      H1385   1.083       .  S
C1381      C1382   1.405       .  A
C1381      H1386   1.083       .  S
C1382      C1383   1.402       .  A
C1383      C1384   1.403       .  A
C1383      H1387   1.083       .  S
C1384      H1388   1.083       .  S
C1389      C1390   1.411       .  A
C1389      C1394   1.403       .  A
C1389      H1399   1.083       .  S
C1390      C1395   1.489       .  S
C1390      C1391   1.402       .  A
C1391      C1392   1.395       .  A
C1391      H1396   1.083       .  S
C1392      C1393   1.408       .  A
C1392      H1397   1.083       .  S
C1393      C1394   1.403       .  A
C1394      H1398   1.083       .  S
C1395      C1400   1.410       .  A
C1395      C1404   1.403       .  A
C1400      C1401   1.402       .  A
C1400      H1405   1.083       .  S
C1401      C1402   1.404       .  A
C1401      H1406   1.083       .  S
C1402      C1403   1.407       .  A
C1403      C1404   1.395       .  A
C1403      H1407   1.083       .  S
C1404      H1408   1.083       .  S
C1409      C1410   1.410       .  A
C1409      C1414   1.400       .  A
C1409      H1419   1.082       .  S
C1410      C1415   1.486       .  S
C1410      C1411   1.403       .  A
C1411      C1412   1.392       .  A
C1411      H1416   1.083       .  S
C1412      C1413   1.405       .  A
C1412      H1417   1.083       .  S
C1413      C1414   1.402       .  A
C1414      H1418   1.083       .  S
C1415      C1420   1.402       .  A
C1415      C1424   1.412       .  A
C1420      C1421   1.391       .  A
C1420      H1425   1.083       .  S
C1421      C1422   1.407       .  A
C1421      H1426   1.083       .  S
C1422      C1423   1.401       .  A
C1423      C1424   1.401       .  A
C1423      H1427   1.083       .  S
C1424      H1428   1.082       .  S
C1429      C1430   1.402   1_565  A
C1429      C1434   1.398       .  A
C1429      H1439   1.083       .  S
C1430      C1435   1.490   1_545  S
C1430      C1431   1.410       .  A
C1431      C1432   1.403       .  A
C1431      H1436   1.083       .  S
C1432      C1433   1.403       .  A
C1432      H1437   1.083       .  S
C1433      C1434   1.410   1_545  A
C1434      H1438   1.083       .  S
C1435      C1440   1.411       .  A
C1435      C1444   1.401   1_565  A
C1440      C1441   1.408       .  A
C1440      H1445   1.083       .  S
C1441      C1442   1.406       .  A
C1441      H1446   1.083       .  S
C1442      C1443   1.408   1_565  A
C1443      C1444   1.393       .  A
C1443      H1447   1.083       .  S
C1444      H1448   1.083       .  S
C1449      C1450   1.402       .  A
C1449      C1454   1.395       .  A
C1449      H1459   1.083       .  S
C1450      C1455   1.490       .  S
C1450      C1451   1.411       .  A
C1451      C1452   1.404       .  A
C1451      H1456   1.082       .  S
C1452      C1453   1.403       .  A
C1452      H1457   1.083       .  S
C1453      C1454   1.407       .  A
C1454      H1458   1.083       .  S
C1455      C1460   1.412       .  A
C1455      C1464   1.401       .  A
C1460      C1461   1.405       .  A
C1460      H1465   1.082       .  S
C1461      C1462   1.403       .  A
C1461      H1466   1.083       .  S
C1462      C1463   1.409       .  A
C1463      C1464   1.395       .  A
C1463      H1467   1.083       .  S
C1464      H1468   1.083       .  S
C1469      C1470   1.411       .  A
C1469      C1474   1.402       .  A
C1469      H1479   1.082       .  S
C1470      C1475   1.491       .  S
C1470      C1471   1.404       .  A
C1471      C1472   1.396       .  A
C1471      H1476   1.083       .  S
C1472      C1473   1.407       .  A
C1472      H1477   1.083       .  S
C1473      C1474   1.402       .  A
C1474      H1478   1.083       .  S
C1475      C1480   1.402       .  A
C1475      C1484   1.412       .  A
C1480      C1481   1.393       .  A
C1480      H1485   1.083       .  S
C1481      C1482   1.408       .  A
C1481      H1486   1.083       .  S
C1482      C1483   1.403       .  A
C1483      C1484   1.405       .  A
C1483      H1487   1.083       .  S
C1484      H1488   1.082       .  S
C1489      C1490   1.411       .  A
C1489      C1494   1.405       .  A
C1489      H1499   1.082       .  S
C1490      C1495   1.490       .  S
C1490      C1491   1.402   1_655  A
C1491      C1492   1.393       .  A
C1491      H1496   1.083       .  S
C1492      C1493   1.407   1_455  A
C1492      H1497   1.083       .  S
C1493      C1494   1.404       .  A
C1494      H1498   1.083       .  S
C1495      C1500   1.411       .  A
C1495      C1504   1.403       .  A
C1500      C1501   1.401       .  A
C1500      H1505   1.083       .  S
C1501      C1502   1.402       .  A
C1501      H1506   1.083       .  S
C1502      C1503   1.408       .  A
C1503      C1504   1.396       .  A
C1503      H1507   1.083       .  S
C1504      H1508   1.083       .  S
C1509      C1510   1.411       .  A
C1509      C1514   1.400       .  A
C1509      H1519   1.082       .  S
C1510      C1515   1.490       .  S
C1510      C1511   1.403       .  A
C1511      C1512   1.396       .  A
C1511      H1516   1.082       .  S
C1512      C1513   1.408       .  A
C1512      H1517   1.083       .  S
C1513      C1514   1.401       .  A
C1514      H1518   1.083       .  S
C1515      C1520   1.403       .  A
C1515      C1524   1.413       .  A
C1520      C1521   1.391       .  A
C1520      H1525   1.082       .  S
C1521      C1522   1.404       .  A
C1521      H1526   1.084       .  S
C1522      C1523   1.401       .  A
C1523      C1524   1.404       .  A
C1523      H1527   1.083       .  S
C1524      H1528   1.082       .  S
C1529      C1530   1.401       .  A
C1529      C1534   1.394       .  A
C1529      H1539   1.083       .  S
C1530      C1535   1.490       .  S
C1530      C1531   1.412       .  A
C1531      C1532   1.406       .  A
C1531      H1536   1.082       .  S
C1532      C1533   1.404       .  A
C1532      H1537   1.083   1_655  S
C1533      C1534   1.409       .  A
C1534      H1538   1.083       .  S
C1535      C1540   1.412       .  A
C1535      C1544   1.401       .  A
C1540      C1541   1.405       .  A
C1540      H1545   1.082       .  S
C1541      C1542   1.403       .  A
C1541      H1546   1.083       .  S
C1542      C1543   1.410       .  A
C1543      C1544   1.395       .  A
C1543      H1547   1.083       .  S
C1544      H1548   1.083       .  S
C1549      C1550   1.402       .  A
C1549      C1554   1.393       .  A
C1549      H1559   1.082       .  S
C1550      C1555   1.491       .  S
C1550      C1551   1.412       .  A
C1551      C1552   1.403       .  A
C1551      H1556   1.082       .  S
C1552      C1553   1.402       .  A
C1552      H1557   1.083       .  S
C1553      C1554   1.408       .  A
C1554      H1558   1.083       .  S
C1555      C1560   1.412       .  A
C1555      C1564   1.404       .  A
C1560      C1561   1.402       .  A
C1560      H1565   1.082       .  S
C1561      C1562   1.400       .  A
C1561      H1566   1.083       .  S
C1562      C1563   1.404       .  A
C1563      C1564   1.394       .  A
C1563      H1567   1.084       .  S
C1564      H1568   1.082       .  S
C1569      C1570   1.412   1_455  A
C1569      C1574   1.406       .  A
C1569      H1579   1.083       .  S
C1570      C1575   1.488       .  S
C1570      C1571   1.402       .  A
C1571      C1572   1.392       .  A
C1571      H1576   1.083       .  S
C1572      C1573   1.406       .  A
C1572      H1577   1.083       .  S
C1573      C1574   1.403   1_655  A
C1574      H1578   1.083       .  S
C1575      C1580   1.411       .  A
C1575      C1584   1.402       .  A
C1580      C1581   1.401       .  A
C1580      H1585   1.083       .  S
C1581      C1582   1.402       .  A
C1581      H1586   1.083       .  S
C1582      C1583   1.409       .  A
C1583      C1584   1.395       .  A
C1583      H1587   1.083   1_655  S
C1584      H1588   1.083       .  S
C1589      C1590   1.405       .  A
C1589      C1594   1.396       .  A
C1589      H1599   1.082       .  S
C1590      C1595   1.498       .  S
C1590      C1591   1.414       .  A
C1591      C1592   1.405       .  A
C1591      H1596   1.082       .  S
C1592      C1593   1.401       .  A
C1592      H1597   1.083       .  S
C1593      C1594   1.406       .  A
C1594      H1598   1.084       .  S
C1595      C1600   1.414       .  A
C1595      C1604   1.405       .  A
C1600      C1601   1.404       .  A
C1600      H1605   1.082       .  S
C1601      C1602   1.401       .  A
C1601      H1606   1.083       .  S
C1602      C1603   1.405       .  A
C1603      C1604   1.396       .  A
C1603      H1607   1.084       .  S
C1604      H1608   1.082       .  S
C1609      C1610   1.411       .  A
C1609      C1614   1.403       .  A
C1609      H1619   1.083       .  S
C1610      C1615   1.481       .  S
C1610      C1611   1.399       .  A
C1611      C1612   1.389       .  A
C1611      H1616   1.083       .  S
C1612      C1613   1.408       .  A
C1612      H1617   1.083       .  S
C1613      C1614   1.403       .  A
C1614      H1618   1.083       .  S
C1615      C1620   1.399       .  A
C1615      C1624   1.410       .  A
C1620      C1621   1.391       .  A
C1620      H1625   1.083       .  S
C1621      C1622   1.408       .  A
C1621      H1626   1.083       .  S
C1622      C1623   1.402       .  A
C1623      C1624   1.401       .  A
C1623      H1627   1.083       .  S
C1624      H1628   1.083       .  S
C1629      C1630   1.410   1_565  A
C1629      C1634   1.403       .  A
C1629      H1639   1.082       .  S
C1630      C1635   1.484       .  S
C1630      C1631   1.400       .  A
C1631      C1632   1.392       .  A
C1631      H1636   1.083       .  S
C1632      C1633   1.408   1_545  A
C1632      H1637   1.083       .  S
C1633      C1634   1.402       .  A
C1634      H1638   1.083       .  S
C1635      C1640   1.410       .  A
C1635      C1644   1.401       .  A
C1640      C1641   1.401       .  A
C1640      H1645   1.083       .  S
C1641      C1642   1.402       .  A
C1641      H1646   1.083       .  S
C1642      C1643   1.408       .  A
C1643      C1644   1.394       .  A
C1643      H1647   1.083       .  S
C1644      H1648   1.083   1_545  S
C1649      C1650   1.412       .  A
C1649      C1654   1.405       .  A
C1649      H1659   1.082       .  S
C1650      C1655   1.491       .  S
C1650      C1651   1.402   1_545  A
C1651      C1652   1.394   1_565  A
C1651      H1656   1.083       .  S
C1652      C1653   1.408       .  A
C1652      H1657   1.083   1_545  S
C1653      C1654   1.403       .  A
C1654      H1658   1.083       .  S
C1655      C1660   1.402       .  A
C1655      C1664   1.411   1_545  A
C1660      C1661   1.395       .  A
C1660      H1665   1.083       .  S
C1661      C1662   1.409   1_545  A
C1661      H1666   1.083       .  S
C1662      C1663   1.403       .  A
C1663      C1664   1.404       .  A
C1663      H1667   1.083       .  S
C1664      H1668   1.082       .  S
C1669      C1670   1.412   1_565  A
C1669      C1674   1.403       .  A
C1669      H1679   1.082       .  S
C1670      C1675   1.487       .  S
C1670      C1671   1.401       .  A
C1671      C1672   1.391       .  A
C1671      H1676   1.083       .  S
C1672      C1673   1.407       .  A
C1672      H1677   1.083       .  S
C1673      C1674   1.401   1_545  A
C1674      H1678   1.083       .  S
C1675      C1680   1.402   1_545  A
C1675      C1684   1.412       .  A
C1680      C1681   1.393       .  A
C1680      H1685   1.083       .  S
C1681      C1682   1.406       .  A
C1681      H1686   1.083       .  S
C1682      C1683   1.400   1_565  A
C1683      C1684   1.401       .  A
C1683      H1687   1.083       .  S
C1684      H1688   1.082       .  S
C1689      C1690   1.410       .  A
C1689      C1694   1.403       .  A
C1689      H1699   1.082       .  S
C1690      C1695   1.487       .  S
C1690      C1691   1.401       .  A
C1691      C1692   1.394       .  A
C1691      H1696   1.083       .  S
C1692      C1693   1.409       .  A
C1692      H1697   1.083       .  S
C1693      C1694   1.403       .  A
C1694      H1698   1.083       .  S
C1695      C1700   1.402       .  A
C1695      C1704   1.410       .  A
C1700      C1701   1.394       .  A
C1700      H1705   1.083       .  S
C1701      C1702   1.408       .  A
C1701      H1706   1.083       .  S
C1702      C1703   1.403       .  A
C1703      C1704   1.403       .  A
C1703      H1707   1.083       .  S
C1704      H1708   1.082       .  S
C1709      C1710   1.412       .  A
C1709      C1714   1.402       .  A
C1709      H1719   1.082       .  S
C1710      C1715   1.494       .  S
C1710      C1711   1.403       .  A
C1711      C1712   1.397       .  A
C1711      H1716   1.083       .  S
C1712      C1713   1.409       .  A
C1712      H1717   1.083       .  S
C1713      C1714   1.402       .  A
C1714      H1718   1.083       .  S
C1715      C1720   1.402       .  A
C1715      C1724   1.414       .  A
C1720      C1721   1.392       .  A
C1720      H1725   1.082   1_565  S
C1721      C1722   1.408       .  A
C1721      H1726   1.083   1_565  S
C1722      C1723   1.403       .  A
C1723      C1724   1.407       .  A
C1723      H1727   1.083       .  S
C1724      H1728   1.082       .  S
