geometry optimzed in LAMMPS
_audit_creation_date              2020-11-30 
_audit_creation_method            'lammps2cif' 
_symmetry_space_group_name_H-M    'P1' 
_symmetry_Int_Tables_number       1 
_symmetry_cell_setting            triclinic 
loop_ 
_symmetry_equiv_pos_as_xyz 
  x,y,z 
_cell_length_a                    29.785845422996516 
_cell_length_b                    54.5667922396798 
_cell_length_c                    24.532563862630692 
_cell_angle_alpha                 92.13234276057845 
_cell_angle_beta                  106.35439822046578 
_cell_angle_gamma                 79.34081480237519 
loop_ 
_atom_site_label 
_atom_site_type_symbol 
_atom_site_fract_x 
_atom_site_fract_y 
_atom_site_fract_z 
_atom_site_charge 
O1          O  0.25663178  0.39550672  0.33863497    -0.75550
O2          O  0.31067163  0.38828000  0.29128385    -0.54460
C3          C  0.28947470  0.40231442  0.32144095     0.78180
O4          O  0.26305962  0.29754014  0.48483928    -0.60150
O5          O  0.22304403  0.27623977  0.41052293    -0.53180
C6          C  0.23299729  0.28246275  0.46237344     0.70190
O7          O  0.37057257  0.35439298  0.48591489    -0.74710
O8          O  0.39220303  0.36735269  0.41096153    -0.55280
C9          C  0.39435545  0.36683767  0.46361014     0.76190
O10         O  0.14856566  0.34282468  0.29582350    -0.59860
O11         O  0.16419554  0.30122054  0.31590601    -0.52980
C12         C  0.13549947  0.32237730  0.30202020     0.72780
Zr13       Zr  0.22247150  0.35678535  0.31735007     2.54710
O14         O  0.18086313  0.37055530  0.38860992    -0.80420
O15         O  0.17974939  0.39316601  0.25622216    -0.93840
Zr16       Zr  0.31363253  0.32515281  0.45270842     2.64680
O17         O  0.26734160  0.35730778  0.49652356    -0.98790
O18         O  0.36305271  0.31071037  0.54691287    -0.80860
O19         O  0.29627517  0.35837405  0.38434012    -0.84210
O20         O  0.23920971  0.32482583  0.38593004    -2.18920
O21         O  0.24364781  0.26897718  0.18804311    -0.67600
O22         O  0.22420969  0.25708662  0.26507615    -0.52170
C23         C  0.22823719  0.25370961  0.21458678     0.71170
O24         O  0.43850911  0.29799084  0.31148050    -0.60510
O25         O  0.43250582  0.33822975  0.33551780    -0.52490
C26         C  0.45670999  0.31736418  0.32743552     0.72970
O27         O  0.35455020  0.24337953  0.34371115    -0.71910
O28         O  0.30762987  0.25090470  0.39863059    -0.50580
C29         C  0.34712088  0.23938844  0.38992633     0.74350
O30         O  0.32571085  0.33602610  0.19431915    -0.67240
O31         O  0.32655183  0.37131588  0.23803411    -0.54430
C32         C  0.30879807  0.35889298  0.19540434     0.72730
Zr33       Zr  0.28155423  0.30651459  0.21230025     2.77540
O34         O  0.33814955  0.27974099  0.17108029    -0.97980
O35         O  0.23059949  0.31735283  0.11661495    -0.78810
Zr36       Zr  0.38190543  0.28195072  0.34672484     2.70070
O37         O  0.43011317  0.24596474  0.31700914    -0.80050
O38         O  0.45040256  0.27525146  0.42986229    -0.99140
Zr39       Zr  0.35047865  0.34846682  0.32733622     2.21500
Zr40       Zr  0.25057859  0.28617710  0.33629476     2.11130
O41         O  0.30778926  0.27611779  0.28263736    -2.47820
O42         O  0.35867602  0.31174676  0.27144883    -0.79850
O43         O  0.22223635  0.31846206  0.26194552    -0.72040
O44         O  0.37412584  0.31848246  0.40188493    -2.33000
O45         O  0.28624027  0.32864424  0.29908023    -2.29210
O46         O  0.32603861  0.28774681  0.40295660    -0.73800
H47         H  0.21378349  0.32594944  0.40363637     0.78200
H48         H  0.40474488  0.32043781  0.42645519     0.79280
H49         H  0.31036779  0.26037407  0.26367696     0.81510
H50         H  0.29556318  0.31597051  0.32874696     0.79120
H51         H  0.39577784  0.30664617  0.54294095     0.42150
H52         H  0.43987520  0.28366481  0.46171319     0.41120
H53         H  0.41650158  0.24558231  0.27528790     0.40800
H54         H  0.34205903  0.26280038  0.18677683     0.38730
H55         H  0.20519029  0.30731598  0.11089868     0.41870
H56         H  0.20073686  0.39871309  0.23616871     0.36650
H57         H  0.17537351  0.38898954  0.38621969     0.42770
H58         H  0.24471019  0.34871701  0.50774416     0.39180
H59         H  0.32099053  0.27884184  0.13037287     0.44100
H60         H  0.15290334  0.38820835  0.22691875     0.42820
H61         H  0.28989885  0.36075443  0.53289947     0.42960
H62         H  0.47315443  0.28506965  0.42307172     0.43320
O63         O  0.82593387  0.34251597  0.50837214    -0.75550
O64         O  0.85333973  0.36552964  0.45653702    -0.54460
C65         C  0.85490714  0.35645573  0.50370975     0.78180
O66         O  0.79331525  0.24142666  0.38477484    -0.60150
O67         O  0.72448354  0.25533744  0.31587212    -0.53180
C68         C  0.75073094  0.23963419  0.35469502     0.70190
O69         O  0.91733699  0.28165757  0.46678988    -0.74710
O70         O  0.93409634  0.31984967  0.45425981    -0.55280
C71         C  0.94271277  0.29888252  0.48046817     0.76190
O72         O  0.68192547  0.32255319  0.41670228    -0.59860
O73         O  0.66435143  0.30259705  0.33195231    -0.52980
C74         C  0.65435082  0.31244971  0.37609067     0.72780
Zr75       Zr  0.76040710  0.33157596  0.43215175     2.54710
O76         O  0.75447343  0.31285746  0.51783188    -0.80420
O77         O  0.72158794  0.37156794  0.45948438    -0.93840
Zr78       Zr  0.84711111  0.27229295  0.39486842     2.64680
O79         O  0.87001989  0.24640266  0.48053919    -0.98790
O80         O  0.89963135  0.24028898  0.35896106    -0.80860
O81         O  0.83933463  0.31227557  0.43601340    -0.84210
O82         O  0.76804411  0.29147451  0.39164434    -2.18920
O83         O  0.67220462  0.35552135  0.20758430    -0.67600
O84         O  0.66203996  0.31554897  0.21649527    -0.52170
C85         C  0.65075877  0.33690055  0.19131059     0.71170
O86         O  0.91458963  0.31329280  0.26497981    -0.60510
O87         O  0.93002868  0.33885187  0.34092155    -0.52490
C88         C  0.94129178  0.32616045  0.30013720     0.72970
O89         O  0.80118941  0.26813291  0.20719156    -0.71910
O90         O  0.72609595  0.27061039  0.21257866    -0.50580
C91         C  0.76265237  0.25921593  0.19897028     0.74350
O92         O  0.78993273  0.39579011  0.31441724    -0.67240
O93         O  0.86549229  0.38189296  0.37042878    -0.54430
C94         C  0.83131081  0.39894853  0.34494841     0.72730
Zr95       Zr  0.74376899  0.36289497  0.28064034     2.77540
O96         O  0.73344567  0.39039414  0.20031098    -0.97980
O97         O  0.68343065  0.39274911  0.30962035    -0.78810
Zr98       Zr  0.83436964  0.30498094  0.24502053     2.70070
O99         O  0.80505177  0.32869077  0.15575761    -0.80050
O100        O  0.88142480  0.28319177  0.18530457    -0.99140
Zr101      Zr  0.86495671  0.33898726  0.38098979     2.21500
Zr102      Zr  0.72915075  0.29705936  0.29254088     2.11130
O103        O  0.75522819  0.32336477  0.23755701    -2.47820
O104        O  0.82414749  0.34555388  0.28309223    -0.79850
O105        O  0.71653383  0.33676809  0.33405123    -0.72040
O106        O  0.87689603  0.29841861  0.34281438    -2.33000
O107        O  0.78510730  0.35821245  0.37772919    -2.29210
O108        O  0.80798682  0.27764368  0.29729073    -0.73800
H109        H  0.75302732  0.28151395  0.41041618     0.78200
H110        H  0.91025928  0.29174351  0.34848194     0.79280
H111        H  0.73848862  0.32344899  0.19770616     0.81510
H112        H  0.78037361  0.37459615  0.39372624     0.79120
H113        H  0.93209621  0.24232463  0.38100555     0.42150
H114        H  0.89391372  0.26635526  0.20284083     0.41120
H115        H  0.81431080  0.34517340  0.16545519     0.40800
H116        H  0.76617102  0.39118505  0.19935529     0.38730
H117        H  0.65269182  0.38993074  0.28390578     0.41870
H118        H  0.74783597  0.37975328  0.48176394     0.36650
H119        H  0.77880583  0.29740890  0.52417899     0.42770
H120        H  0.84131249  0.24904105  0.49436043     0.39180
H121        H  0.72106780  0.40718862  0.21243251     0.44100
H122        H  0.70625782  0.36720732  0.48785884     0.42820
H123        H  0.87332998  0.22898003  0.46728501     0.42960
H124        H  0.85801157  0.28049116  0.14898061     0.43320
O125        O  0.12191811  0.19676247  0.53130808    -0.75550
O126        O  0.19225427  0.19566699  0.59425074    -0.54460
C127        C  0.16137360  0.20539289  0.55072047     0.78180
O128        O  0.98059793  0.18206132  0.70713457    -0.60150
O129        O  0.98376052  0.14051087  0.69309237    -0.53180
C130        C  0.96149669  0.16254782  0.69816634     0.70190
O131        O  0.05484772  0.23803278  0.67328173    -0.74710
O132        O  0.12099247  0.23530266  0.64315956    -0.55280
C133        C  0.08096873  0.24754329  0.65006255     0.76190
O134        O  0.03160064  0.13760867  0.52207482    -0.59860
O135        O  0.01295322  0.11738107  0.59100452    -0.52980
C136        C  0.00641360  0.12427887  0.53785135     0.72780
Zr137      Zr  0.09687632  0.15809078  0.56183213     2.54710
O138        O  0.05256770  0.16890724  0.46357481    -0.80420
O139        O  0.14683541  0.13009624  0.51411383    -0.93840
Zr140      Zr  0.03570369  0.19753626  0.66689699     2.64680
O141        O  0.98089435  0.20732940  0.57254459    -0.98790
O142        O  0.97404966  0.22927957  0.68798990    -0.80860
O143        O  0.09004513  0.19530707  0.61116051    -0.84210
O144        O  0.04130731  0.16065855  0.61840815    -2.18920
O145        O  0.16144000  0.07602330  0.69705847    -0.67600
O146        O  0.08238540  0.08312898  0.69029293    -0.52170
C147        C  0.12187705  0.06797207  0.69624600     0.71170
O148        O  0.16816319  0.21326506  0.81402060    -0.60510
O149        O  0.20702040  0.21629864  0.74906898    -0.52490
C150        C  0.18694795  0.22624565  0.78588291     0.72970
O151        O  0.09016399  0.15150033  0.83153903    -0.71910
O152        O  0.09554767  0.11395985  0.79713862    -0.50580
C153        C  0.10734575  0.12874367  0.84017913     0.74350
O154        O  0.26496449  0.13291740  0.69583628    -0.67240
O155        O  0.25150016  0.17572517  0.69251026    -0.54430
C156        C  0.27847936  0.15409379  0.69603043     0.72730
Zr157      Zr  0.19052988  0.11838004  0.68929104     2.77540
O158        O  0.25232325  0.09312761  0.76306368    -0.97980
O159        O  0.21685771  0.09546469  0.61344781    -0.78810
Zr160      Zr  0.14213628  0.17113335  0.79828393     2.70070
O161        O  0.21645440  0.16073902  0.87230343    -0.80050
O162        O  0.11345637  0.18875736  0.87752751    -0.99140
Zr163      Zr  0.16740187  0.19204115  0.67506835     2.21500
Zr164      Zr  0.06469562  0.12792695  0.68992005     2.11130
O165        O  0.14309895  0.13119987  0.74837366    -2.47820
O166        O  0.19338991  0.15781174  0.74091521    -0.79850
O167        O  0.11390422  0.12245366  0.62596716    -0.72040
O168        O  0.11065206  0.20092457  0.72756914    -2.33000
O169        O  0.17262646  0.15328448  0.62514006    -2.29210
O170        O  0.06364856  0.16698652  0.73979458    -0.73800
H171        H  0.00866615  0.16175585  0.59632727     0.78200
H172        H  0.10530805  0.21689999  0.74416455     0.79280
H173        H  0.15943176  0.11751737  0.77452827     0.81510
H174        H  0.19608900  0.15136042  0.60422767     0.79120
H175        H  0.98640506  0.23263627  0.72892661     0.42150
H176        H  0.13745740  0.19853839  0.89880653     0.41120
H177        H  0.24017653  0.16668240  0.85729696     0.40800
H178        H  0.23612200  0.08160590  0.77753740     0.38730
H179        H  0.19088467  0.08633546  0.59496553     0.41870
H180        H  0.15386626  0.14104793  0.48746022     0.36650
H181        H  0.03515833  0.18611613  0.46510549     0.42770
H182        H  0.95064978  0.20280974  0.57426666     0.39180
H183        H  0.27220560  0.08229292  0.74222740     0.44100
H184        H  0.12506391  0.11996081  0.48940415     0.42820
H185        H  0.97421823  0.22577653  0.57003383     0.42960
H186        H  0.08501010  0.20139744  0.85981283     0.43320
O187        O  0.63246781  0.16802690  0.46454209    -0.75550
O188        O  0.67077713  0.19706895  0.51728667    -0.54460
C189        C  0.65755730  0.18574690  0.47101205     0.78180
O190        O  0.47215377  0.17774209  0.65751140    -0.60150
O191        O  0.50088240  0.13835106  0.69249291    -0.53180
C192        C  0.46728642  0.15751961  0.67825139     0.70190
O193        O  0.53662728  0.23385424  0.59245793    -0.74710
O194        O  0.57545294  0.22148854  0.53047660    -0.55280
C195        C  0.53658536  0.23229201  0.54140414     0.76190
O196        O  0.58326745  0.10546548  0.55053649    -0.59860
O197        O  0.52993278  0.10917283  0.59775270    -0.52980
C198        C  0.54091545  0.10478857  0.55022437     0.72780
Zr199      Zr  0.59831426  0.14493512  0.52780851     2.54710
O200        O  0.52661673  0.15063563  0.44821719    -0.80420
O201        O  0.63321078  0.11400798  0.47002774    -0.93840
Zr202      Zr  0.52811342  0.19418896  0.62067380     2.64680
O203        O  0.46407138  0.18974522  0.53526661    -0.98790
O204        O  0.47452600  0.22697264  0.65282289    -0.80860
O205        O  0.57567722  0.18602371  0.55455821    -0.84210
O206        O  0.54772692  0.15350913  0.59173011    -2.18920
O207        O  0.68673403  0.08495540  0.68310853    -0.67600
O208        O  0.61328633  0.08796637  0.69672303    -0.52170
C209        C  0.65311848  0.07516547  0.69461925     0.71170
O210        O  0.66828665  0.22832397  0.74025381    -0.60510
O211        O  0.66410115  0.23661814  0.64854901    -0.52490
C212        C  0.67047447  0.24307419  0.70063027     0.72970
O213        O  0.61559854  0.16575617  0.81368171    -0.71910
O214        O  0.61778555  0.12593813  0.78815730    -0.50580
C215        C  0.63132745  0.14274614  0.82572543     0.74350
O216        O  0.73768433  0.16259608  0.64511032    -0.67240
O217        O  0.73119301  0.20037415  0.61509679    -0.54430
C218        C  0.75775962  0.17994601  0.63589132     0.72730
Zr219      Zr  0.70310534  0.12856785  0.66420953     2.77540
O220        O  0.77127240  0.11634647  0.74658014    -0.97980
O221        O  0.75728849  0.10409592  0.61621483    -0.78810
Zr222      Zr  0.64437297  0.18644416  0.74864215     2.70070
O223        O  0.71857940  0.18102055  0.82458174    -0.80050
O224        O  0.60886690  0.21797107  0.80465975    -0.99140
Zr225      Zr  0.64857617  0.19827464  0.60156201     2.21500
Zr226      Zr  0.58078404  0.13058055  0.68022481     2.11130
O227        O  0.65700963  0.14241479  0.72492698    -2.47820
O228        O  0.68999313  0.17281998  0.68564072    -0.79850
O229        O  0.62873039  0.12032208  0.61446096    -0.72040
O230        O  0.60038443  0.20828500  0.66520126    -2.33000
O231        O  0.67111896  0.15432361  0.57974122    -2.29210
O232        O  0.56868580  0.17346471  0.70784075    -0.73800
H233        H  0.51701590  0.14987312  0.57202556     0.78200
H234        H  0.59359299  0.22556614  0.67496781     0.79280
H235        H  0.67792968  0.13287506  0.75725679     0.81510
H236        H  0.69246734  0.15131003  0.55592780     0.79120
H237        H  0.49443816  0.23246130  0.68904489     0.42150
H238        H  0.57611970  0.21489166  0.79893409     0.41120
H239        H  0.73494803  0.16390698  0.82006773     0.40800
H240        H  0.76886341  0.12992195  0.77402166     0.38730
H241        H  0.73772010  0.10318307  0.57647299     0.41870
H242        H  0.66649640  0.11651713  0.47755565     0.36650
H243        H  0.53817549  0.14736945  0.41407512     0.42770
H244        H  0.48007038  0.18133654  0.50757938     0.39180
H245        H  0.76390786  0.10192255  0.76352417     0.44100
H246        H  0.61777211  0.11979423  0.43026015     0.42820
H247        H  0.44759476  0.17704329  0.54448886     0.42960
H248        H  0.62558173  0.21310689  0.84473667     0.43320
O249        O  0.14614747  0.35710962  0.98975217    -0.75550
O250        O  0.08936170  0.37864466  0.02748728    -0.54460
C251        C  0.13210172  0.36706353  0.03154836     0.78180
O252        O  0.20448273  0.41492918  0.84138218    -0.60150
O253        O  0.17721886  0.39860131  0.75415142    -0.53180
C254        C  0.21028790  0.40560187  0.79434458     0.70190
O255        O  0.13194298  0.41518676  0.98729836    -0.74710
O256        O  0.07552983  0.43219757  0.02253362    -0.55280
C257        C  0.11593597  0.43284723  0.01564786     0.76190
O258        O  0.16698241  0.33845455  0.82657788    -0.59860
O259        O  0.12491648  0.35212065  0.73857249    -0.52980
C260        C  0.14892003  0.33423833  0.77465193     0.72780
Zr261      Zr  0.11919621  0.35361085  0.88879725     2.54710
O262        O  0.18794668  0.32141461  0.93008262    -0.80420
O263        O  0.08395235  0.31682430  0.89163815    -0.93840
Zr264      Zr  0.14719360  0.42199554  0.89818962     2.64680
O265        O  0.22966961  0.41093648  0.95562692    -0.98790
O266        O  0.15378118  0.46570522  0.89825483    -0.80860
O267        O  0.11987415  0.39113729  0.93800764    -0.84210
O268        O  0.14751047  0.38467232  0.84739509    -2.18920
O269        O  0.02832870  0.35957902  0.72741003    -0.67600
O270        O  0.04420464  0.38535655  0.67060239    -0.52170
C271        C  0.01997256  0.36943112  0.67842895     0.71170
O272        O  0.95177547  0.45783085  0.87758947    -0.60510
O273        O  0.00042039  0.44537210  0.96292225    -0.52490
C274        C  0.95957935  0.45523281  0.93231871     0.72970
O275        O  0.04746173  0.46942989  0.75928075    -0.71910
O276        O  0.09880030  0.44260522  0.72142567    -0.50580
C277        C  0.07918168  0.46553835  0.73155425     0.74350
O278        O  0.95186055  0.36895637  0.86599568    -0.67240
O279        O  0.95822774  0.39837037  0.93273216    -0.54430
C280        C  0.93311535  0.38492061  0.89595252     0.72730
Zr281      Zr  0.99110659  0.37847962  0.79847936     2.77540
O282        O  0.91305105  0.39688546  0.73749740    -0.97980
O283        O  0.96724741  0.33784077  0.78123622    -0.78810
Zr284      Zr  0.00913250  0.44805027  0.81553235     2.70070
O285        O  0.93936740  0.45893081  0.73453313    -0.80050
O286        O  0.00291874  0.49123203  0.84599701    -0.99140
Zr287      Zr  0.04103454  0.40553842  0.94621330     2.21500
Zr288      Zr  0.09645514  0.39793473  0.75516825     2.11130
O289        O  0.01354559  0.41206033  0.75704734    -2.47820
O290        O  0.98717000  0.41476940  0.85414120    -0.79850
O291        O  0.07037689  0.36550528  0.79697894    -0.72120
O292        O  0.06708628  0.43753979  0.90243335    -2.33000
O293        O  0.04052734  0.36779348  0.89323627    -2.29210
O294        O  0.08954093  0.43315954  0.81245610    -0.73800
H295        H  0.17985996  0.37769564  0.84844998     0.78200
H296        H  0.06626999  0.45301221  0.92262627     0.79280
H297        H  0.99269300  0.41618155  0.71933190     0.81510
H298        H  0.03119166  0.35543147  0.91280947     0.79120
H299        H  0.12553543  0.47364630  0.86817733     0.42150
H300        H  0.03623282  0.49376634  0.86101591     0.41120
H301        H  0.94041693  0.47605403  0.72359545     0.40800
H302        H  0.90537682  0.41338023  0.75419920     0.38730
H303        H  0.99601288  0.32581016  0.80087526     0.41870
H304        H  0.07859302  0.31694850  0.92971216     0.36650
H305        H  0.21493012  0.33045391  0.94293149     0.42770
H306        H  0.23849283  0.39287979  0.94926884     0.39180
H307        H  0.89099558  0.38705876  0.74613058     0.44100
H308        H  0.11042909  0.30259434  0.89432462     0.42820
H309        H  0.24915873  0.41870455  0.93709314     0.42960
H310        H  0.99017442  0.50132206  0.81044325     0.43320
O311        O  0.50753066  0.42790483  0.65813140    -0.75550
O312        O  0.57175415  0.41009258  0.63566395    -0.54460
C313        C  0.52638725  0.41694301  0.62117195     0.78180
O314        O  0.47190553  0.47221008  0.87348592    -0.60150
O315        O  0.45356725  0.43728418  0.90386882    -0.53180
C316        C  0.45161554  0.46053653  0.90456809     0.70190
O317        O  0.57116111  0.48282639  0.74931071    -0.74710
O318        O  0.62364316  0.45525064  0.71335234    -0.55280
C319        C  0.60538916  0.47789308  0.72495465     0.76190
O320        O  0.41705333  0.39859982  0.75474197    -0.59860
O321        O  0.43507260  0.40074549  0.85110397    -0.52980
C322        C  0.40651043  0.39811199  0.80179201     0.72780
Zr323      Zr  0.48415754  0.40358749  0.72249034     2.54710
O324        O  0.40531431  0.42041474  0.66168578    -0.80420
O325        O  0.47281693  0.36802721  0.66004414    -0.93840
Zr326      Zr  0.52285923  0.46381914  0.79847697     2.64680
O327        O  0.45404073  0.98375070  0.72423619    -0.98790
O328        O  0.53361132  0.00502840  0.83487590    -0.80860
O329        O  0.53118369  0.43453473  0.72561737    -0.84210
O330        O  0.47760173  0.43247904  0.79492574    -2.18920
O331        O  0.58056004  0.34769749  0.92284055    -0.67600
O332        O  0.52841008  0.37809822  0.95020775    -0.52170
C333        C  0.55741691  0.35724647  0.95865964     0.71170
O334        O  0.71318220  0.41127752  0.86922600    -0.60510
O335        O  0.69954162  0.40993478  0.77312443    -0.52490
C336        C  0.72729141  0.40925691  0.82444796     0.72970
O337        O  0.62111076  0.42525796  0.98462869    -0.71910
O338        O  0.54759431  0.44421902  0.94773357    -0.50580
C339        C  0.58879195  0.44408025  0.98326831     0.74350
O340        O  0.66367121  0.35323531  0.80181706    -0.67240
O341        O  0.64769388  0.36868224  0.71459962    -0.54430
C342        C  0.66252522  0.34974418  0.74984764     0.72730
Zr343      Zr  0.59109005  0.35977216  0.82993852     2.77540
O344        O  0.63103781  0.31668051  0.85042454    -0.97980
O345        O  0.54137884  0.33354962  0.76740543    -0.78810
Zr346      Zr  0.64088884  0.41952430  0.89638399     2.70070
O347        O  0.70495864  0.39941866  0.97561232    -0.80050
O348        O  0.67196997  0.45812961  0.91564403    -0.99140
Zr349      Zr  0.61253311  0.41243553  0.73759271     2.21500
Zr350      Zr  0.51495005  0.41070834  0.88269882     2.11130
O351        O  0.59545624  0.38937198  0.90322926    -2.47820
O352        O  0.64094841  0.38919714  0.82587825    -0.79850
O353        O  0.51201168  0.38092002  0.81018772    -0.72040
O354        O  0.60503192  0.44219216  0.81143281    -2.33000
O355        O  0.56329475  0.38139629  0.73932194    -2.29210
O356        O  0.56104428  0.44060169  0.87933860    -0.73800
H357        H  0.44480854  0.43997570  0.79102057     0.78200
H358        H  0.62642714  0.45373592  0.81468747     0.79280
H359        H  0.61064501  0.38336913  0.94165064     0.81510
H360        H  0.56417546  0.36963010  0.70912813     0.79120
H361        H  0.56776384  0.00287186  0.85595915     0.42150
H362        H  0.64384321  0.47139605  0.91255833     0.41120
H363        H  0.70686928  0.38136512  0.96799545     0.40800
H364        H  0.65579253  0.31723973  0.88686674     0.38730
H365        H  0.56037028  0.32589001  0.74184380     0.41870
H366        H  0.49288235  0.36842269  0.63421065     0.36650
H367        H  0.39959342  0.43819429  0.67212038     0.42770
H368        H  0.42796712  0.98714923  0.74268476     0.39180
H369        H  0.60747639  0.30806031  0.85945460     0.44100
H370        H  0.43974668  0.37233701  0.63547355     0.42820
H371        H  0.46098873  0.00040738  0.71882241     0.42960
H372        H  0.68981118  0.45701195  0.95633774     0.43320
O373        O  0.39403423  0.49348520  0.12827621    -0.75550
O374        O  0.31846208  0.49011517  0.09428504    -0.54460
C375        C  0.36146981  0.48642287  0.08898261     0.78180
O376        O  0.40529964  0.07959104  0.33098540    -0.60150
O377        O  0.39861355  0.11243357  0.27157443    -0.53180
C378        C  0.41412954  0.10066036  0.32128316     0.70190
O379        O  0.34806677  0.51174320  0.31601983    -0.74710
O380        O  0.30086813  0.49320546  0.24225515    -0.55280
C381        C  0.32408964  0.49468427  0.29456728     0.76190
O382        O  0.42866283  0.06824780  0.10210782    -0.59860
O383        O  0.42962295  0.10088755  0.15915980    -0.52980
C384        C  0.45164509  0.08313051  0.13475395     0.72780
Zr385      Zr  0.39612246  0.03696475  0.13690623     2.54710
O386        O  0.47437251  0.52380679  0.20333379    -0.80420
O387        O  0.43377706  0.02442576  0.06158703    -0.93840
Zr388      Zr  0.36414519  0.04931819  0.27999552     2.64680
O389        O  0.44349144  0.52562885  0.32271208    -0.98790
O390        O  0.34530109  0.05812283  0.36996145    -0.80860
O391        O  0.36541484  0.52093708  0.20539685    -0.84210
O392        O  0.39649504  0.06474805  0.21226945    -2.18920
O393        O  0.30596988  0.09459938  0.02782199    -0.67600
O394        O  0.30119955  0.12831126  0.07745082    -0.52170
C395        C  0.28709314  0.11705398  0.02951208     0.71170
O396        O  0.18721852  0.06282669  0.21652677    -0.60510
O397        O  0.19606867  0.53062514  0.15688689    -0.52490
C398        C  0.17049224  0.04658100  0.18211453     0.72970
O399        O  0.23566887  0.13353641  0.19853937    -0.71910
O400        O  0.30556533  0.14262813  0.19112756    -0.50580
C401        C  0.26268913  0.14894468  0.19448597     0.74350
O402        O  0.22207666  0.03051189  0.01901152    -0.67240
O403        O  0.23078313  0.50315835  0.09098497    -0.54430
C404        C  0.21456308  0.01045653  0.03962093     0.72730
Zr405      Zr  0.26164056  0.06771817  0.05425906     2.77540
O406        O  0.17943836  0.08798249  0.02138446    -0.97980
O407        O  0.25394942  0.06247871  0.95358948    -0.78810
Zr408      Zr  0.24094318  0.08809939  0.20444082     2.70070
O409        O  0.15842786  0.10928912  0.17233260    -0.80050
O410        O  0.24698201  0.09694085  0.30401343    -0.99140
Zr411      Zr  0.28349309  0.01991035  0.16121089     2.21500
Zr412      Zr  0.34860865  0.10361031  0.17049023     2.11130
O413        O  0.26652001  0.09838219  0.12772227    -2.47820
O414        O  0.23430353  0.05864726  0.12919864    -0.79850
O415        O  0.34301842  0.07349553  0.09560422    -0.72040
O416        O  0.28380445  0.04784395  0.23846790    -2.33000
O417        O  0.31563381  0.03334510  0.09112220    -2.29210
O418        O  0.32123237  0.08983896  0.24513463    -0.73800
H419        H  0.42871774  0.06687031  0.23079124     0.78200
H420        H  0.27031914  0.04173193  0.26563404     0.79280
H421        H  0.24532485  0.11348629  0.11133049     0.81510
H422        H  0.31386307  0.02611241  0.05456144     0.79120
H423        H  0.31236031  0.05516987  0.36311044     0.42150
H424        H  0.23777116  0.11527786  0.30532933     0.41120
H425        H  0.15113293  0.10987101  0.13041173     0.40800
H426        H  0.17627651  0.10441479  0.03941834     0.38730
H427        H  0.28723192  0.05877594  0.95148761     0.41870
H428        H  0.40741935  0.02348381  0.02699515     0.36650
H429        H  0.48386275  0.50610522  0.19433654     0.42770
H430        H  0.46546960  0.53568761  0.31479224     0.39180
H431        H  0.17293453  0.09056016  0.98012154     0.44100
H432        H  0.45099419  0.00713421  0.07091894     0.42820
H433        H  0.44784822  0.52712821  0.36415306     0.42960
H434        H  0.22032646  0.09042823  0.31146011     0.43320
O435        O  0.87418202  0.49438698  0.12987884    -0.75550
O436        O  0.79955858  0.49278963  0.08723626    -0.54460
C437        C  0.84435010  0.48602714  0.08995875     0.78180
O438        O  0.92320892  0.07204945  0.30318956    -0.60150
O439        O  0.89138963  0.11011699  0.26530017    -0.53180
C440        C  0.91410890  0.09529449  0.30953514     0.70190
O441        O  0.84523745  0.51142298  0.29642875    -0.74710
O442        O  0.78520363  0.49854246  0.22776850    -0.55280
C443        C  0.81755557  0.49599656  0.27531557     0.76190
O444        O  0.95339845  0.05182943  0.13026445    -0.59860
O445        O  0.94105604  0.09325083  0.15095461    -0.52980
C446        C  0.96793350  0.07245210  0.14370291     0.72780
Zr447      Zr  0.88099236  0.03535631  0.11147620     2.54710
O448        O  0.95110923  0.00466379  0.10928439    -0.80420
O449        O  0.87807130  0.03732102  0.01133160    -0.93840
Zr450      Zr  0.86177819  0.04921558  0.26366702     2.64680
O451        O  0.93293420  0.01710810  0.29620978    -0.98790
O452        O  0.84255383  0.06239368  0.35175771    -0.80860
O453        O  0.85032283  0.02337740  0.18479144    -0.84210
O454        O  0.89464200  0.06036754  0.19250356    -2.18920
O455        O  0.81106150  0.09370685  0.01739030    -0.67600
O456        O  0.82085427  0.12759981  0.06595624    -0.52170
C457        C  0.80246683  0.11723489  0.01836497     0.71170
O458        O  0.67799866  0.07928764  0.19557359    -0.60510
O459        O  0.68405076  0.03953983  0.16252851    -0.52490
C460        C  0.66015333  0.05987222  0.17823235     0.72970
O461        O  0.75841641  0.14045778  0.19656738    -0.71910
O462        O  0.82709162  0.14266925  0.17501464    -0.50580
C463        C  0.78951142  0.15258659  0.18833230     0.74350
O464        O  0.70813106  0.03762559  0.00975856    -0.67240
O465        O  0.69025248  0.03093243  0.08915823    -0.54430
C466        C  0.68708900  0.02620630  0.03831195     0.72730
Zr467      Zr  0.75333575  0.07389726  0.03967134     2.77540
O468        O  0.67816625  0.10318719  0.01210867    -0.97980
O469        O  0.73504388  0.07067024  0.93690170    -0.78810
Zr470      Zr  0.74509989  0.09675478  0.19331480     2.70070
O471        O  0.67068841  0.12536436  0.15268152    -0.80050
O472        O  0.74337562  0.10661833  0.29037937    -0.99140
Zr473      Zr  0.76667438  0.02688765  0.14923025     2.21500
Zr474      Zr  0.85769857  0.10139342  0.15762778     2.11130
O475        O  0.77235487  0.10336855  0.11552352    -2.47820
O476        O  0.72814010  0.06792020  0.11854892    -0.79850
O477        O  0.83811724  0.07437363  0.07749553    -0.72040
O478        O  0.77903554  0.05482607  0.22683339    -2.33000
O479        O  0.79732900  0.03527191  0.07161258    -2.29210
O480        O  0.82741108  0.09120562  0.23233470    -0.73800
H481        H  0.92796857  0.05892605  0.21149536     0.78200
H482        H  0.76484223  0.05042568  0.25515638     0.79280
H483        H  0.75665430  0.11985629  0.10090609     0.81510
H484        H  0.79211124  0.02618775  0.03657991     0.79120
H485        H  0.81924969  0.05219531  0.35536716     0.42150
H486        H  0.77109415  0.11489639  0.30620483     0.41120
H487        H  0.65467565  0.11711858  0.11787823     0.40800
H488        H  0.68444845  0.11924512  0.02965227     0.38730
H489        H  0.75828388  0.05614289  0.93056643     0.41870
H490        H  0.84590066  0.03495749  0.98925406     0.36650
H491        H  0.96849545  0.50094892  0.14970478     0.42770
H492        H  0.96053048  0.02562895  0.30295439     0.39180
H493        H  0.67138745  0.10585599  0.97072454     0.44100
H494        H  0.89991697  0.02222796  0.00479201     0.42820
H495        H  0.93345976  0.01132128  0.33416653     0.42960
H496        H  0.71540398  0.12016343  0.28618597     0.43320
C497        C  0.52774438  0.05348163  0.13656989    -0.09420
C498        C  0.50507944  0.07774678  0.14670799     0.06780
C499        C  0.53451233  0.09494282  0.17130464    -0.03190
C500        C  0.58417762  0.08796327  0.18363724    -0.07630
C501        C  0.60713272  0.06384222  0.17201622     0.05890
C502        C  0.57757932  0.04639793  0.14923161    -0.02660
Br503      Br  0.60203329  0.51239517  0.13613949    -0.02350
H504        H  0.50665740  0.03944807  0.11946799     0.09810
H505        H  0.60477884  0.10221346  0.20134300     0.07820
Br506      Br  0.50975471  0.12875514  0.18654812    -0.02780
C507        C  0.09817063  0.04982359  0.21477057    -0.09420
C508        C  0.11794794  0.04924359  0.16898144     0.06780
C509        C  0.08785559  0.05942943  0.11633936    -0.03190
C510        C  0.03955642  0.06918312  0.10981565    -0.07630
C511        C  0.02007553  0.06985637  0.15563851     0.05890
C512        C  0.05000540  0.05976167  0.20844637    -0.02660
Br513      Br  0.02672403  0.05849449  0.27336319    -0.02350
H514        H  0.12080302  0.54319517  0.25633534     0.09810
H515        H  0.01681470  0.07583804  0.06833965     0.07820
Br516      Br  0.11105227  0.06245276  0.05276565    -0.02780
C517        C  0.64939689  0.46441478  0.04532954    -0.09420
C518        C  0.60488838  0.46760259  0.00625382     0.06780
C519        C  0.58606627  0.49150634  0.98013407    -0.03190
C520        C  0.61575445  0.50925827  0.98380625    -0.07630
C521        C  0.66252712  0.50488116  0.01920558     0.05890
C522        C  0.67679576  0.48281150  0.05394677    -0.02660
Br523      Br  0.72755271  0.47689143  0.12206442    -0.02350
H524        H  0.66330820  0.44708225  0.06955950     0.09810
H525        H  0.60056804  0.02757546  0.96475491     0.07820
Br526      Br  0.51962700  0.50437864  0.95819831    -0.02780
C527        C  0.38331970  0.48526689  0.93863190    -0.09420
C528        C  0.42974101  0.47127318  0.95131659     0.06780
C529        C  0.44707602  0.45947374  0.00647115    -0.03190
C530        C  0.42093504  0.46288094  0.04618185    -0.07630
C531        C  0.37599180  0.47775361  0.03543656     0.05890
C532        C  0.35648824  0.48848612  0.97916874    -0.02660
Br533      Br  0.29308728  0.00626291  0.95058570    -0.02350
H534        H  0.36670194  0.49266011  0.89587082     0.09810
H535        H  0.43703516  0.45416111  0.08786259     0.07820
Br536      Br  0.50474606  0.43592002  0.03343156    -0.02780
C537        C  0.13727562  0.49855923  0.00353162    -0.09420
C538        C  0.18591321  0.49322904  0.00644429     0.06780
C539        C  0.20883026  0.46803004  0.01279035    -0.03190
C540        C  0.18648257  0.44997974  0.02583710    -0.07630
C541        C  0.13840921  0.45503841  0.02334132     0.05890
C542        C  0.11344009  0.47981832  0.01268163    -0.02660
Br543      Br  0.04890801  0.48982131  0.01490078    -0.02350
H544        H  0.11880070  0.01762844  0.99914648     0.09810
H545        H  0.20655296  0.43126854  0.03570926     0.07820
Br546      Br  0.27265926  0.45681773  0.01033786    -0.02780
C547        C  0.85604538  0.41216656  0.89768435    -0.09420
C548        C  0.87983978  0.38964903  0.88151287     0.06780
C549        C  0.85184666  0.37431358  0.84318187    -0.03190
C550        C  0.80273710  0.38231776  0.82014994    -0.07630
C551        C  0.77960557  0.40486689  0.83613002     0.05890
C552        C  0.80668765  0.41963311  0.87594196    -0.02660
Br553      Br  0.77709052  0.45015695  0.90228556    -0.02350
H554        H  0.87584443  0.42421051  0.92685636     0.09810
H555        H  0.78196400  0.37003448  0.79251230     0.07820
Br556      Br  0.87612688  0.34114177  0.82330610    -0.02780
C557        C  0.32104355  0.40804110  0.75002536    -0.09420
C558        C  0.35669673  0.39637079  0.79710840     0.06780
C559        C  0.34330781  0.38470192  0.83875833    -0.03190
C560        C  0.29505124  0.38727003  0.83577552    -0.07630
C561        C  0.25964613  0.40058483  0.79071112     0.05890
C562        C  0.27294885  0.40987531  0.74625565    -0.02660
Br563      Br  0.22749786  0.42663195  0.68150268    -0.02350
H564        H  0.33050470  0.41669612  0.71680773     0.09810
H565        H  0.28506142  0.37899729  0.86909504     0.07820
Br566      Br  0.38888024  0.36409271  0.89839580    -0.02780
C567        C  0.84883087  0.48299332  0.98686761    -0.09420
C568        C  0.86423130  0.47336200  0.04341431     0.06780
C569        C  0.90848846  0.45681107  0.05880838    -0.03190
C570        C  0.93566022  0.45090959  0.02061018    -0.07630
C571        C  0.92277908  0.46176082  0.96568545     0.05890
C572        C  0.87761209  0.47749543  0.94839796    -0.02660
Br573      Br  0.85497940  0.49295937  0.87456116    -0.02350
H574        H  0.81563093  0.49607850  0.97334893     0.09810
H575        H  0.96895870  0.43801220  0.03599982     0.07820
Br576      Br  0.93859735  0.44314450  0.13395334    -0.02780
C577        C  0.71552790  0.12063191  0.87160421    -0.09420
C578        C  0.67448604  0.13668349  0.87761391     0.06780
C579        C  0.67982450  0.15044474  0.92899195    -0.03190
C580        C  0.72339313  0.14643079  0.97344652    -0.07630
C581        C  0.76365009  0.12955078  0.96748933     0.05890
C582        C  0.75956815  0.11821603  0.91374996    -0.02660
Br583      Br  0.81397272  0.09849882  0.89585540    -0.02350
H584        H  0.71418219  0.11012544  0.83318908     0.09810
H585        H  0.72462111  0.15529024  0.01395653     0.07820
Br586      Br  0.62706862  0.17300942  0.94340568    -0.02780
C587        C  0.42820341  0.11769169  0.41999317    -0.09420
C588        C  0.44692309  0.10922236  0.37413740     0.06780
C589        C  0.49544345  0.09780860  0.38864725    -0.03190
C590        C  0.52358537  0.09556555  0.44570861    -0.07630
C591        C  0.50535230  0.10429290  0.49172388     0.05890
C592        C  0.45644119  0.11536780  0.47766255    -0.02660
Br593      Br  0.42523284  0.12646612  0.53496661    -0.02350
H594        H  0.39033167  0.12463013  0.41118708     0.09810
H595        H  0.56052175  0.08662664  0.45405618     0.07820
Br596      Br  0.52383799  0.08217285  0.33187503    -0.02780
C597        C  0.62598450  0.01933735  0.75851764    -0.09420
C598        C  0.62733520  0.00049413  0.71787629     0.06780
C599        C  0.64878146  0.00472338  0.67478093    -0.03190
C600        C  0.66204745  0.02832547  0.66952350    -0.07630
C601        C  0.65684096  0.04776399  0.70849407     0.05890
C602        C  0.64058032  0.04206638  0.75476571    -0.02660
Br603      Br  0.63389268  0.06558693  0.81360588    -0.02350
H604        H  0.61254997  0.01662580  0.79408295     0.09810
H605        H  0.67406264  0.03184424  0.63329379     0.07820
Br606      Br  0.65907000  0.47955077  0.62091946    -0.02780
C607        C  0.69702401  0.30444882  0.77637620    -0.09420
C608        C  0.67448776  0.32269448  0.73283054     0.06780
C609        C  0.65804183  0.31369157  0.67737278    -0.03190
C610        C  0.65891056  0.28790246  0.66806800    -0.07630
C611        C  0.67661230  0.26995472  0.71289571     0.05890
C612        C  0.69803759  0.27865762  0.76714290    -0.02660
Br613      Br  0.73034986  0.25632329  0.83023328    -0.02350
H614        H  0.71264122  0.31031420  0.81908370     0.09810
H615        H  0.64384298  0.28201676  0.62519449     0.07820
Br616      Br  0.63315835  0.33528404  0.61231558    -0.02780
C617        C  0.19815715  0.13736298  0.98679143    -0.09420
C618        C  0.24237503  0.12533943  0.97970457     0.06780
C619        C  0.24030867  0.11386990  0.92629152    -0.03190
C620        C  0.19660325  0.11115413  0.88630180    -0.07630
C621        C  0.15202284  0.12329848  0.89213433     0.05890
C622        C  0.15408712  0.13655212  0.94410723    -0.02660
Br623      Br  0.09634916  0.14998756  0.96330387    -0.02350
H624        H  0.19720040  0.14570459  0.02729080     0.09810
H625        H  0.19872901  0.10005247  0.84970492     0.07820
Br626      Br  0.29750734  0.10400309  0.90304074    -0.02780
C627        C  0.83565977  0.15593767  0.68941936    -0.09420
C628        C  0.80992427  0.17584369  0.65162849     0.06780
C629        C  0.83480549  0.19098241  0.63056471    -0.03190
C630        C  0.88413898  0.18670291  0.64924419    -0.07630
C631        C  0.90977447  0.16688679  0.68671834     0.05890
C632        C  0.88528796  0.15117608  0.70656888    -0.02660
Br633      Br  0.91736493  0.12386056  0.75845663    -0.02350
H634        H  0.81720969  0.14400866  0.70598646     0.09810
H635        H  0.90273547  0.19846698  0.63240021     0.07820
Br636      Br  0.80480081  0.21639105  0.57299461    -0.02780
C637        C  0.33325312  0.17085846  0.65648534    -0.09420
C638        C  0.32764479  0.15417028  0.69471671     0.06780
C639        C  0.36814717  0.13829887  0.72809473    -0.03190
C640        C  0.41345928  0.13953620  0.72251579    -0.07630
C641        C  0.41912376  0.15653561  0.68409939     0.05890
C642        C  0.37768511  0.17220485  0.65059407    -0.02660
Br643      Br  0.37592083  0.19543445  0.59296385    -0.02350
H644        H  0.30225442  0.18280061  0.62967213     0.09810
H645        H  0.44432790  0.12740096  0.74882039     0.07820
Br646      Br  0.36369933  0.11589730  0.78393091    -0.02780
C647        C  0.96760615  0.09286319  0.47422513    -0.09420
C648        C  0.96827774  0.11773481  0.48762299     0.06780
C649        C  0.94402824  0.13576211  0.44341024    -0.03190
C650        C  0.92591197  0.12863108  0.38641441    -0.07630
C651        C  0.92967964  0.10340628  0.37147569     0.05890
C652        C  0.94815195  0.08556759  0.41815151    -0.02660
Br653      Br  0.95015060  0.05023446  0.41283854    -0.02350
H654        H  0.98534153  0.07874954  0.50699982     0.09810
H655        H  0.90981755  0.14291339  0.35370005     0.07820
Br656      Br  0.93594056  0.17078660  0.45880852    -0.02780
C657        C  0.13071118  0.51943234  0.67311021    -0.09420
C658        C  0.11841168  0.04028105  0.70651675     0.06780
C659        C  0.09298680  0.03520251  0.74479088    -0.03190
C660        C  0.08347179  0.51123772  0.75154770    -0.07630
C661        C  0.09492176  0.49025732  0.71893826     0.05890
C662        C  0.11843849  0.49517076  0.67809755    -0.02660
Br663      Br  0.12829176  0.47078740  0.62275366    -0.02350
H664        H  0.14740295  0.02229591  0.64054081     0.09810
H665        H  0.06532973  0.50943513  0.78324713     0.07820
Br666      Br  0.06694068  0.06057869  0.78948975    -0.02780
C667        C  0.12367790  0.29439876  0.78365453    -0.09420
C668        C  0.15193518  0.30715465  0.76175703     0.06780
C669        C  0.19232883  0.29304865  0.74965784    -0.03190
C670        C  0.20444077  0.26713350  0.76075322    -0.07630
C671        C  0.17766271  0.25439875  0.78584675     0.05890
C672        C  0.13646223  0.26869426  0.79710302    -0.02660
Br673      Br  0.09574652  0.25486942  0.83120873    -0.02350
H674        H  0.09244928  0.30496573  0.79332041     0.09810
H675        H  0.23521274  0.25686848  0.74942530     0.07820
Br676      Br  0.23205104  0.30877067  0.71837888    -0.02780
C677        C  0.70691279  0.18350490  0.40079673    -0.09420
C678        C  0.67133352  0.19660791  0.42448305     0.06780
C679        C  0.66175306  0.22299386  0.41984455    -0.03190
C680        C  0.68837347  0.23546210  0.39630489    -0.07630
C681        C  0.72450924  0.22289810  0.37469050     0.05890
C682        C  0.73331340  0.19657524  0.37545653    -0.02660
Br683      Br  0.78148180  0.17834614  0.34427550    -0.02350
H684        H  0.71643830  0.16340717  0.40546720     0.09810
H685        H  0.68292575  0.25560493  0.39843151     0.07820
Br686      Br  0.61891310  0.24420163  0.45454544    -0.02780
C687        C  0.02990075  0.29294017  0.53154736    -0.09420
C688        C  0.98244213  0.29447354  0.53246856     0.06780
C689        C  0.97318280  0.29016377  0.58396149    -0.03190
C690        C  0.01083170  0.28129646  0.63085288    -0.07630
C691        C  0.05691183  0.27273822  0.62460916     0.05890
C692        C  0.06729402  0.28231636  0.57832478    -0.02660
Br693      Br  0.13088719  0.28511942  0.58363087    -0.02350
H694        H  0.03776103  0.29877618  0.49405619     0.09810
H695        H  0.00213636  0.27671007  0.66882589     0.07820
Br696      Br  0.90968137  0.29276364  0.59069052    -0.02780
C697        C  0.81111705  0.21852889  0.19253365    -0.09420
C698        C  0.76525602  0.23255859  0.18481997     0.06780
C699        C  0.72669380  0.21982237  0.17820897    -0.03190
C700        C  0.73520905  0.19371976  0.18067331    -0.07630
C701        C  0.78162231  0.17998804  0.19118492     0.05890
C702        C  0.81993427  0.19286500  0.19819651    -0.02660
Br703      Br  0.88637687  0.17757020  0.22108498    -0.02350
H704        H  0.84166223  0.22755061  0.19910145     0.09810
H705        H  0.70538191  0.18415018  0.17425767     0.07820
Br706      Br  0.66177269  0.23642190  0.16620197    -0.02780
C707        C  0.85599025  0.42766178  0.29576934    -0.09420
C708        C  0.84148655  0.42349385  0.34283955     0.06780
C709        C  0.82420967  0.44352782  0.37368058    -0.03190
C710        C  0.81916347  0.46795194  0.35405825    -0.07630
C711        C  0.82851182  0.47169749  0.30243332     0.05890
C712        C  0.84709573  0.45134173  0.27380255    -0.02660
Br713      Br  0.85329240  0.45356829  0.19963770    -0.02350
H714        H  0.86801322  0.41208233  0.27135413     0.09810
H715        H  0.80489169  0.48361120  0.37639886     0.07820
Br716      Br  0.80445232  0.43802059  0.43938180    -0.02780
C717        C  0.62720305  0.32114709  0.09457190    -0.09420
C718        C  0.61659474  0.33858691  0.13472198     0.06780
C719        C  0.57921003  0.35882528  0.11717974    -0.03190
C720        C  0.55559827  0.36238604  0.05938285    -0.07630
C721        C  0.57054247  0.34685369  0.01768868     0.05890
C722        C  0.60511095  0.32517821  0.03649836    -0.02660
Br723      Br  0.62663422  0.30098207  0.98646221    -0.02350
H724        H  0.65580869  0.30526621  0.10803961     0.09810
H725        H  0.52813197  0.37877719  0.04718419     0.07820
Br726      Br  0.56095828  0.38264211  0.17019727    -0.02780
C727        C  0.93656788  0.36370030  0.53558989    -0.09420
C728        C  0.89593214  0.35975195  0.55036811     0.06780
C729        C  0.89762136  0.35758396  0.60760804    -0.03190
C730        C  0.93967274  0.35955177  0.64855919    -0.07630
C731        C  0.97957407  0.36413914  0.63361844     0.05890
C732        C  0.97838706  0.36544437  0.57652193    -0.02660
Br733      Br  0.03304129  0.36791347  0.55151073    -0.02350
H734        H  0.93652361  0.36490688  0.49161634     0.09810
H735        H  0.94043112  0.35843689  0.69229194     0.07820
Br736      Br  0.84381527  0.35356707  0.63284148    -0.02780
C737        C  0.52737093  0.33698882  0.36097063    -0.09420
C738        C  0.50809242  0.31556559  0.34057914     0.06780
C739        C  0.53892641  0.29271746  0.33903936    -0.03190
C740        C  0.58724266  0.29183190  0.35764438    -0.07630
C741        C  0.60610878  0.31316078  0.37638778     0.05890
C742        C  0.57612418  0.33602491  0.37784548    -0.02660
Br743      Br  0.59912090  0.36697239  0.39245398    -0.02350
H744        H  0.50463920  0.35483405  0.36225468     0.09810
H745        H  0.61023736  0.27470479  0.35229446     0.07820
Br746      Br  0.52047708  0.26205322  0.30835429    -0.02780
C747        C  0.06702051  0.30163193  0.29695449    -0.09420
C748        C  0.08398925  0.32383528  0.29484807     0.06780
C749        C  0.05168629  0.34702835  0.29040816    -0.03190
C750        C  0.00505207  0.34728721  0.29130639    -0.07630
C751        C  0.98919070  0.32511284  0.29503686     0.05890
C752        C  0.02008942  0.30212596  0.29689034    -0.02660
Br753      Br  0.00115296  0.27092564  0.30429027    -0.02350
H754        H  0.09057811  0.28373258  0.30027454     0.09810
H755        H  0.98097789  0.36496253  0.28951291     0.07820
Br756      Br  0.06684479  0.37956938  0.28490217    -0.02780
C757        C  0.21353947  0.23772706  0.56399645    -0.09420
C758        C  0.17344823  0.22829581  0.52929959     0.06780
C759        C  0.14692418  0.24198983  0.47960314    -0.03190
C760        C  0.16424364  0.26189726  0.46224992    -0.07630
C761        C  0.20747877  0.26933719  0.49408953     0.05890
C762        C  0.22936181  0.25830720  0.54790372    -0.02660
Br763      Br  0.27742028  0.27179622  0.60342075    -0.02350
H764        H  0.23274940  0.22945063  0.60534632     0.09810
H765        H  0.14474032  0.27094089  0.42172153     0.07820
Br766      Br  0.08734458  0.23464995  0.43399849    -0.02780
C767        C  0.44837134  0.24320806  0.52046143    -0.09420
C768        C  0.48814549  0.23336518  0.50027604     0.06780
C769        C  0.47903290  0.22078403  0.44791911    -0.03190
C770        C  0.43204237  0.21859940  0.41823968    -0.07630
C771        C  0.39224473  0.23067152  0.43593360     0.05890
C772        C  0.40164120  0.24167114  0.48954569    -0.02660
Br773      Br  0.35265616  0.25507803  0.52315749    -0.02350
H774        H  0.45337292  0.25265954  0.56069611     0.09810
H775        H  0.42621533  0.20924484  0.37778347     0.07820
Br776      Br  0.52763538  0.20667909  0.41292800    -0.02780
C777        C  0.25931156  0.19045846  0.15582027    -0.09420
C778        C  0.24326867  0.17595512  0.18997403     0.06780
C779        C  0.21115437  0.18784939  0.21937462    -0.03190
C780        C  0.20030823  0.21392350  0.21913069    -0.07630
C781        C  0.22201766  0.22859328  0.19144697     0.05890
C782        C  0.24906724  0.21642482  0.15606243    -0.02660
Br783      Br  0.27752018  0.23318277  0.11084929    -0.02350
H784        H  0.28198994  0.18150505  0.13043035     0.09810
H785        H  0.17841528  0.22271723  0.24553800     0.07820
Br786      Br  0.18577261  0.17006321  0.26639452    -0.02780
C787        C  0.27240370  0.44713671  0.34470700    -0.09420
C788        C  0.30501423  0.42639303  0.33609057     0.06780
C789        C  0.35096968  0.42976680  0.33437028    -0.03190
C790        C  0.36020244  0.45367254  0.33276799    -0.07630
C791        C  0.32432674  0.47417366  0.33058147     0.05890
C792        C  0.28177990  0.47111470  0.34140383    -0.02660
Br793      Br  0.23338477  0.49926785  0.34397636    -0.02350
H794        H  0.23788739  0.44491943  0.34807935     0.09810
H795        H  0.39315166  0.45614232  0.32485689     0.07820
Br796      Br  0.40183430  0.40364782  0.32633969    -0.02780
C797        C  0.21044954  0.37850679  0.06596034    -0.09420
C798        C  0.17210295  0.37088014  0.07984380     0.06780
C799        C  0.17749226  0.36352194  0.13542856    -0.03190
C800        C  0.22222918  0.36235057  0.17504181    -0.07630
C801        C  0.26112378  0.36802524  0.15942768     0.05890
C802        C  0.25483462  0.37672567  0.10478806    -0.02660
Br803      Br  0.30713552  0.38291866  0.07928394    -0.02350
H804        H  0.20718723  0.38366304  0.02284284     0.09810
H805        H  0.22783583  0.35518376  0.21698211     0.07820
Br806      Br  0.12900194  0.34964982  0.15446350    -0.02780
C807        C  0.47583167  0.37656079  0.49913041    -0.09420
C808        C  0.42784272  0.38146615  0.49985177     0.06780
C809        C  0.41170868  0.40261540  0.52795187    -0.03190
C810        C  0.44444681  0.41643647  0.56068061    -0.07630
C811        C  0.49374614  0.40884867  0.56844264     0.05890
C812        C  0.50868734  0.39034777  0.53263719    -0.02660
Br813      Br  0.57153583  0.38505381  0.52397306    -0.02350
H814        H  0.48777318  0.36191083  0.47262482     0.09810
H815        H  0.43142807  0.43260843  0.58239861     0.07820
Br816      Br  0.34539689  0.41355033  0.52181191    -0.02780
O817        O  0.25663058  0.89550468  0.33862390    -0.75550
O818        O  0.31066542  0.88827499  0.29126712    -0.54460
C819        C  0.28947250  0.90231083  0.32142554     0.78180
O820        O  0.26305598  0.79754314  0.48484224    -0.60150
O821        O  0.22304064  0.77624119  0.41052877    -0.53180
C822        C  0.23299362  0.78246548  0.46237836     0.70190
O823        O  0.37056733  0.85439617  0.48590759    -0.74710
O824        O  0.39219911  0.86735420  0.41095315    -0.55280
C825        C  0.39435023  0.86684053  0.46360185     0.76190
O826        O  0.14856435  0.84282378  0.29581582    -0.59860
O827        O  0.16419247  0.80122100  0.31591246    -0.52980
C828        C  0.13549741  0.82237769  0.30202108     0.72780
Zr829      Zr  0.22247043  0.85678349  0.31734413     2.54710
O830        O  0.18086194  0.87055590  0.38860269    -0.80420
O831        O  0.17974960  0.89316247  0.25621071    -0.93840
Zr832      Zr  0.31362926  0.82515441  0.45270716     2.64680
O833        O  0.26734046  0.85730960  0.49652439    -0.98790
O834        O  0.36305240  0.81071147  0.54691001    -0.80860
O835        O  0.29627364  0.85837345  0.38433352    -0.84210
O836        O  0.23920686  0.82482626  0.38592885    -2.18920
O837        O  0.24364391  0.76897246  0.18804910    -0.67600
O838        O  0.22420594  0.75708389  0.26508395    -0.52170
C839        C  0.22823286  0.75370576  0.21459452     0.71170
O840        O  0.43851608  0.79798343  0.31149933    -0.60510
O841        O  0.43250557  0.83822570  0.33551226    -0.52490
C842        C  0.45671239  0.81735918  0.32744034     0.72970
O843        O  0.35454324  0.74337826  0.34371865    -0.71910
O844        O  0.30762292  0.75090432  0.39863781    -0.50580
C845        C  0.34711309  0.73938739  0.38993339     0.74350
O846        O  0.32571019  0.83601870  0.19431217    -0.67240
O847        O  0.32655618  0.87130932  0.23802379    -0.54430
C848        C  0.30880003  0.85888605  0.19539576     0.72730
Zr849      Zr  0.28155297  0.80650923  0.21230177     2.77540
O850        O  0.33814785  0.77973130  0.17108824    -0.97980
O851        O  0.23059846  0.81734664  0.11661569    -0.78810
Zr852      Zr  0.38190139  0.78194862  0.34673138     2.70070
O853        O  0.43011853  0.74596451  0.31702299    -0.80050
O854        O  0.45038890  0.77525415  0.42987942    -0.99140
Zr855      Zr  0.35047804  0.84846421  0.32733085     2.21500
Zr856      Zr  0.25057480  0.78617603  0.33629879     2.11130
O857        O  0.30778623  0.77611452  0.28264306    -2.47820
O858        O  0.35867463  0.81174202  0.27145038    -0.79850
O859        O  0.22223448  0.81845873  0.26194530    -0.72040
O860        O  0.37412266  0.81848266  0.40188400    -2.33000
O861        O  0.28623974  0.82864122  0.29907889    -2.29210
O862        O  0.32603409  0.78774646  0.40296173    -0.73800
H863        H  0.21378048  0.82595080  0.40363520     0.78200
H864        H  0.40474129  0.82043918  0.42645339     0.79280
H865        H  0.31036391  0.76037063  0.26368321     0.81510
H866        H  0.29556191  0.81596839  0.32874720     0.79120
H867        H  0.39577733  0.80664870  0.54293716     0.42150
H868        H  0.43985475  0.78366716  0.46172638     0.41120
H869        H  0.41650402  0.74557845  0.27530272     0.40800
H870        H  0.34205036  0.76279074  0.18678149     0.38730
H871        H  0.20518975  0.80730949  0.11089954     0.41870
H872        H  0.20073718  0.89870813  0.23615543     0.36650
H873        H  0.17538401  0.88899008  0.38622083     0.42770
H874        H  0.24470459  0.84871988  0.50773852     0.39180
H875        H  0.32099182  0.77883380  0.13037934     0.44100
H876        H  0.15290309  0.88820426  0.22690904     0.42820
H877        H  0.28989669  0.86075349  0.53290358     0.42960
H878        H  0.47314096  0.78507352  0.42309395     0.43320
O879        O  0.82592663  0.84252211  0.50837287    -0.75550
O880        O  0.85332859  0.86553716  0.45653606    -0.54460
C881        C  0.85489717  0.85646336  0.50370930     0.78180
O882        O  0.79331817  0.74143013  0.38477625    -0.60150
O883        O  0.72448788  0.75533838  0.31586907    -0.53180
C884        C  0.75073476  0.73963622  0.35469463     0.70190
O885        O  0.91733903  0.78166402  0.46678838    -0.74710
O886        O  0.93409162  0.81985852  0.45426456    -0.55280
C887        C  0.94271196  0.79889013  0.48046963     0.76190
O888        O  0.68192493  0.82255153  0.41670430    -0.59860
O889        O  0.66435327  0.80259717  0.33195177    -0.52980
C890        C  0.65435163  0.81244833  0.37609091     0.72780
Zr891      Zr  0.76040445  0.83157632  0.43215428     2.54710
O892        O  0.75448347  0.81284833  0.51783028    -0.80420
O893        O  0.72157800  0.87156396  0.45949855    -0.93840
Zr894      Zr  0.84711342  0.77229756  0.39486843     2.64680
O895        O  0.87002617  0.74640783  0.48054032    -0.98790
O896        O  0.89963497  0.74029447  0.35896079    -0.80860
O897        O  0.83933349  0.81227992  0.43601471    -0.84210
O898        O  0.76804515  0.79147599  0.39164356    -2.18920
O899        O  0.67219561  0.85552283  0.20758510    -0.67600
O900        O  0.66203937  0.81554878  0.21649354    -0.52170
C901        C  0.65075357  0.83690080  0.19131005     0.71170
O902        O  0.91458772  0.81330194  0.26498572    -0.60510
O903        O  0.93002526  0.83886038  0.34092877    -0.52490
C904        C  0.94128960  0.82616893  0.30014513     0.72970
O905        O  0.80119829  0.76813953  0.20719074    -0.71910
O906        O  0.72610562  0.77061290  0.21257727    -0.50580
C907        C  0.76266365  0.75922057  0.19896897     0.74350
O908        O  0.78989653  0.89580209  0.31443362    -0.67240
O909        O  0.86546557  0.88190213  0.37041798    -0.54430
C910        C  0.83127652  0.89895935  0.34495943     0.72730
Zr911      Zr  0.74375847  0.86289855  0.28064198     2.77540
O912        O  0.73344544  0.89039658  0.20031403    -0.97980
O913        O  0.68341220  0.89274305  0.30963196    -0.78810
Zr914      Zr  0.83436857  0.80498930  0.24502193     2.70070
O915        O  0.80504803  0.82870112  0.15576177    -0.80050
O916        O  0.88142495  0.78320519  0.18530172    -0.99140
Zr917      Zr  0.86495037  0.83899432  0.38099131     2.21500
Zr918      Zr  0.72915221  0.79706107  0.29253993     2.11130
O919        O  0.75522493  0.82336921  0.23755765    -2.47820
O920        O  0.82413969  0.84556155  0.28309474    -0.79850
O921        O  0.71653037  0.83676864  0.33405322    -0.72040
O922        O  0.87689401  0.79842612  0.34281554    -2.33000
O923        O  0.78509877  0.85821444  0.37773085    -2.29210
O924        O  0.80799030  0.77764907  0.29729052    -0.73800
H925        H  0.75302922  0.78151483  0.41041504     0.78200
H926        H  0.91025765  0.79175191  0.34848383     0.79280
H927        H  0.73848548  0.82345338  0.19770675     0.81510
H928        H  0.78036063  0.87459721  0.39373091     0.79120
H929        H  0.93209959  0.74233099  0.38100425     0.42150
H930        H  0.89391784  0.76636853  0.20283608     0.41120
H931        H  0.81431607  0.84518184  0.16545844     0.40800
H932        H  0.76617254  0.89119193  0.19937264     0.38730
H933        H  0.65270860  0.89013607  0.28346145     0.41870
H934        H  0.74782433  0.87975476  0.48176043     0.36650
H935        H  0.77882283  0.79740260  0.52417379     0.42770
H936        H  0.84131943  0.74904622  0.49436275     0.39180
H937        H  0.72105506  0.90719032  0.21242754     0.44100
H938        H  0.70626664  0.86720039  0.48788931     0.42820
H939        H  0.87333622  0.72898512  0.46728666     0.42960
H940        H  0.85801193  0.78050417  0.14897792     0.43320
O941        O  0.12191748  0.69676351  0.53130771    -0.75550
O942        O  0.19225534  0.69566653  0.59424747    -0.54460
C943        C  0.16137334  0.70539368  0.55071953     0.78180
O944        O  0.98063760  0.68206096  0.70717280    -0.60150
O945        O  0.98375817  0.64051530  0.69309213    -0.53180
C946        C  0.96152069  0.66255654  0.69818019     0.70190
O947        O  0.05485142  0.73803230  0.67328078    -0.74710
O948        O  0.12099415  0.73530208  0.64315540    -0.55280
C949        C  0.08097044  0.74754273  0.65005881     0.76190
O950        O  0.03160061  0.63761041  0.52206661    -0.59860
O951        O  0.01294974  0.61738198  0.59099233    -0.52980
C952        C  0.00641184  0.62428080  0.53784009     0.72780
Zr953      Zr  0.09687781  0.65809031  0.56182825     2.54710
O954        O  0.05258308  0.66890215  0.46356443    -0.80420
O955        O  0.14684219  0.63009515  0.51411762    -0.93840
Zr956      Zr  0.03570551  0.69753660  0.66689032     2.64680
O957        O  0.98088941  0.70732723  0.57254082    -0.98790
O958        O  0.97404357  0.72928023  0.68796930    -0.80860
O959        O  0.09004750  0.69530647  0.61115675    -0.84210
O960        O  0.04130562  0.66065839  0.61840100    -2.18920
O961        O  0.16143275  0.57602269  0.69705245    -0.67600
O962        O  0.08237868  0.58312660  0.69029465    -0.52170
C963        C  0.12187115  0.56797047  0.69624319     0.71170
O964        O  0.16816343  0.71326148  0.81402035    -0.60510
O965        O  0.20702277  0.71629525  0.74907113    -0.52490
C966        C  0.18694907  0.72624217  0.78588408     0.72970
O967        O  0.09015878  0.65149909  0.83153017    -0.71910
O968        O  0.09554002  0.61395886  0.79712866    -0.50580
C969        C  0.10733809  0.62874214  0.84016972     0.74350
O970        O  0.26496412  0.63291483  0.69583258    -0.67240
O971        O  0.25150123  0.67572266  0.69250560    -0.54430
C972        C  0.27847983  0.65409105  0.69602617     0.72730
Zr973      Zr  0.19052758  0.61837833  0.68928588     2.77540
O974        O  0.25231990  0.59312555  0.76305871    -0.97980
O975        O  0.21685559  0.59546174  0.61344418    -0.78810
Zr976      Zr  0.14213464  0.67113058  0.79827816     2.70070
O977        O  0.21645259  0.66073201  0.87229638    -0.80050
O978        O  0.11345546  0.68875364  0.87752276    -0.99140
Zr979      Zr  0.16740354  0.69204010  0.67506544     2.21500
Zr980      Zr  0.06469067  0.62792555  0.68991146     2.11130
O981        O  0.14309490  0.63119757  0.74836663    -2.47820
O982        O  0.19338897  0.65780981  0.74091026    -0.79850
O983        O  0.11390218  0.62245269  0.62596088    -0.72040
O984        O  0.11065321  0.70092325  0.72756502    -2.33000
O985        O  0.17262729  0.65328337  0.62513705    -2.29210
O986        O  0.06364732  0.66698521  0.73978628    -0.73800
H987        H  0.00866441  0.66175623  0.59631973     0.78200
H988        H  0.10530964  0.71689829  0.74416203     0.79280
H989        H  0.15942647  0.61751512  0.77452098     0.81510
H990        H  0.19609029  0.65135932  0.60422526     0.79120
H991        H  0.98639559  0.73264043  0.72890473     0.42150
H992        H  0.13745734  0.69853390  0.89880318     0.41120
H993        H  0.24017546  0.66667596  0.85729226     0.40800
H994        H  0.23611834  0.58160329  0.77753022     0.38730
H995        H  0.19088342  0.58633162  0.59496407     0.41870
H996        H  0.15387096  0.64104602  0.48746064     0.36650
H997        H  0.03517525  0.68611201  0.46508718     0.42770
H998        H  0.95064719  0.70280457  0.57426086     0.39180
H999        H  0.27220347  0.58229149  0.74222285     0.44100
H1000       H  0.12507339  0.61995749  0.48941123     0.42820
H1001       H  0.97420805  0.72577434  0.57002969     0.42960
H1002       H  0.08500997  0.70139434  0.85980895     0.43320
O1003       O  0.63245529  0.66802836  0.46451840    -0.75550
O1004       O  0.67074265  0.69707536  0.51727623    -0.54460
C1005       C  0.65754253  0.68574933  0.47100175     0.78180
O1006       O  0.47214655  0.67774276  0.65750861    -0.60150
O1007       O  0.50088111  0.63835257  0.69249248    -0.53180
C1008       C  0.46728340  0.65752010  0.67824962     0.70190
O1009       O  0.53662107  0.73385503  0.59244921    -0.74710
O1010       O  0.57543152  0.72149659  0.53045051    -0.55280
C1011       C  0.53656731  0.73229834  0.54139078     0.76190
O1012       O  0.58325774  0.60546906  0.55052824    -0.59860
O1013       O  0.52992624  0.60917252  0.59774717    -0.52980
C1014       C  0.54090823  0.60478913  0.55021884     0.72780
Zr1015     Zr  0.59828946  0.64493678  0.52777328     2.54710
O1016       O  0.52657670  0.65063809  0.44817240    -0.80420
O1017       O  0.63319423  0.61400965  0.47000416    -0.93840
Zr1018     Zr  0.52809625  0.69419140  0.62067105     2.64680
O1019       O  0.46406182  0.68974558  0.53526233    -0.98790
O1020       O  0.47451761  0.72697532  0.65282645    -0.80860
O1021       O  0.57562592  0.68602256  0.55452344    -0.84210
O1022       O  0.54771555  0.65351271  0.59171930    -2.18920
O1023       O  0.68674268  0.58494226  0.68311408    -0.67600
O1024       O  0.61329144  0.58797193  0.69671969    -0.52170
C1025       C  0.65311408  0.57516581  0.69460407     0.71170
O1026       O  0.66830416  0.72832121  0.74022672    -0.60510
O1027       O  0.66409649  0.73661409  0.64851493    -0.52490
C1028       C  0.67048659  0.74306997  0.70059809     0.72970
O1029       O  0.61560899  0.66576096  0.81366868    -0.71910
O1030       O  0.61779855  0.62594259  0.78814620    -0.50580
C1031       C  0.63134057  0.64275157  0.82571396     0.74350
O1032       O  0.73534803  0.66340736  0.64444177    -0.67240
O1033       O  0.73204357  0.70011410  0.61514208    -0.54430
C1034       C  0.75787000  0.67977583  0.63612218     0.72730
Zr1035     Zr  0.70358445  0.62847428  0.66465699     2.77540
O1036       O  0.77134638  0.61632758  0.74666107    -0.97980
O1037       O  0.75731534  0.60406896  0.61615797    -0.78810
Zr1038     Zr  0.64438634  0.68644155  0.74861649     2.70070
O1039       O  0.71857995  0.68102642  0.82456962    -0.80050
O1040       O  0.60887122  0.71797772  0.80463138    -0.99140
Zr1041     Zr  0.64863120  0.69827134  0.60155394     2.21500
Zr1042     Zr  0.58078140  0.63058123  0.68020288     2.11130
O1043       O  0.65703203  0.64239894  0.72490101    -2.47820
O1044       O  0.69000780  0.67280928  0.68559447    -0.79850
O1045       O  0.62881664  0.62032803  0.61452033    -0.72040
O1046       O  0.60036168  0.70829080  0.66520391    -2.33000
O1047       O  0.67116292  0.65429536  0.57985789    -2.29210
O1048       O  0.56868696  0.67346713  0.70783524    -0.73800
H1049       H  0.51700374  0.64987495  0.57202682     0.78200
H1050       H  0.59357637  0.72557347  0.67497238     0.79280
H1051       H  0.67789219  0.63288387  0.75727810     0.81510
H1052       H  0.69248411  0.65135580  0.55593304     0.79120
H1053       H  0.49443374  0.73246293  0.68904708     0.42150
H1054       H  0.57612441  0.71489805  0.79890957     0.41120
H1055       H  0.73495658  0.66391526  0.82005271     0.40800
H1056       H  0.76875644  0.62993982  0.77394940     0.38730
H1057       H  0.73763632  0.60321714  0.57643968     0.41870
H1058       H  0.66647911  0.61652205  0.47754429     0.36650
H1059       H  0.53813808  0.64737574  0.41403128     0.42770
H1060       H  0.48006376  0.68133804  0.50757650     0.39180
H1061       H  0.76379868  0.60192748  0.76347677     0.44100
H1062       H  0.61776324  0.61979309  0.43023344     0.42820
H1063       H  0.44758810  0.67704201  0.54448268     0.42960
H1064       H  0.62558657  0.71311572  0.84470954     0.43320
O1065       O  0.14614347  0.85711424  0.98974831    -0.75550
O1066       O  0.08936039  0.87865290  0.02748299    -0.54460
C1067       C  0.13209890  0.86706936  0.03154425     0.78180
O1068       O  0.20448345  0.91491981  0.84136364    -0.60150
O1069       O  0.17721816  0.89858956  0.75413656    -0.53180
C1070       C  0.21028889  0.90558860  0.79432861     0.70190
O1071       O  0.13194428  0.91519183  0.98728797    -0.74710
O1072       O  0.07553045  0.93220331  0.02252222    -0.55280
C1073       C  0.11593607  0.93285336  0.01563455     0.76190
O1074       O  0.16697765  0.83845034  0.82657795    -0.59860
O1075       O  0.12491461  0.85211668  0.73857094    -0.52980
C1076       C  0.14891671  0.83423443  0.77465141     0.72780
Zr1077     Zr  0.11919156  0.85361162  0.88879426     2.54710
O1078       O  0.18793677  0.82141361  0.93008679    -0.80420
O1079       O  0.08394104  0.81682741  0.89163500    -0.93840
Zr1080     Zr  0.14719715  0.92199456  0.89817632     2.64680
O1081       O  0.22967288  0.91093732  0.95561604    -0.98790
O1082       O  0.15378975  0.96570336  0.89823046    -0.80860
O1083       O  0.11987310  0.89113935  0.93799893    -0.84210
O1084       O  0.14750947  0.88466981  0.84738796    -2.18920
O1085       O  0.02832713  0.85957925  0.72740362    -0.67600
O1086       O  0.04420616  0.88535436  0.67059378    -0.52170
C1087       C  0.01997151  0.86943060  0.67842182     0.71170
O1088       O  0.95177165  0.95783197  0.87755733    -0.60510
O1089       O  0.00043990  0.94538808  0.96288116    -0.52490
C1090       C  0.95958859  0.95523850  0.93228841     0.72970
O1091       O  0.04746474  0.96942740  0.75926159    -0.71910
O1092       O  0.09881293  0.94260262  0.72142234    -0.50580
C1093       C  0.07919028  0.96553616  0.73154384     0.74350
O1094       O  0.95185595  0.86896223  0.86598981    -0.67240
O1095       O  0.95822582  0.89837713  0.93272530    -0.54430
C1096       C  0.93311259  0.88492642  0.89594853     0.72730
Zr1097     Zr  0.99110484  0.87848101  0.79847224     2.77540
O1098       O  0.91305004  0.89688738  0.73748927    -0.97980
O1099       O  0.96725226  0.83784057  0.78123277    -0.78810
Zr1100     Zr  0.00913545  0.94805027  0.81551342     2.70070
O1101       O  0.93937574  0.95893191  0.73450822    -0.80050
O1102       O  0.00292313  0.99123149  0.84598183    -0.99140
Zr1103     Zr  0.04103394  0.90554372  0.94620344     2.21500
Zr1104     Zr  0.09645595  0.89793186  0.75515944     2.11130
O1105       O  0.01354616  0.91205900  0.75703407    -2.47820
O1106       O  0.98717039  0.91477207  0.85412937    -0.79850
O1107       O  0.07037497  0.86550492  0.79697435    -0.72120
O1108       O  0.06709021  0.93754142  0.90241600    -2.33000
O1109       O  0.04052361  0.86779743  0.89323117    -2.29210
O1110       O  0.08954476  0.93315814  0.81244234    -0.73800
H1111       H  0.17985840  0.87769078  0.84844521     0.78200
H1112       H  0.06627811  0.95301492  0.92260513     0.79280
H1113       H  0.99269396  0.91617962  0.71931818     0.81510
H1114       H  0.03118652  0.85543662  0.91280623     0.79120
H1115       H  0.12552323  0.97364798  0.86818464     0.42150
H1116       H  0.03623707  0.99376774  0.86098651     0.41120
H1117       H  0.94041839  0.97605826  0.72358429     0.40800
H1118       H  0.90537863  0.91338349  0.75418678     0.38730
H1119       H  0.99601504  0.82581161  0.80088625     0.41870
H1120       H  0.07858356  0.81695170  0.92970999     0.36650
H1121       H  0.21492256  0.83045142  0.94293252     0.42770
H1122       H  0.23849433  0.89287955  0.94926838     0.39180
H1123       H  0.89099307  0.88706294  0.74612681     0.44100
H1124       H  0.11041504  0.80259623  0.89431848     0.42820
H1125       H  0.24916273  0.91870157  0.93707598     0.42960
H1126       H  0.99016609  0.00132198  0.81042943     0.43320
O1127       O  0.50752535  0.92790492  0.65813135    -0.75550
O1128       O  0.57175040  0.91009036  0.63567028    -0.54460
C1129       C  0.52638361  0.91694246  0.62117429     0.78180
O1130       O  0.47190142  0.97220810  0.87349349    -0.60150
O1131       O  0.45353707  0.93728257  0.90383871    -0.53180
C1132       C  0.45160034  0.96053381  0.90456032     0.70190
O1133       O  0.57115700  0.98282489  0.74932121    -0.74710
O1134       O  0.62363680  0.95524836  0.71335995    -0.55280
C1135       C  0.60538423  0.97789102  0.72496370     0.76190
O1136       O  0.41705528  0.89858382  0.75473328    -0.59860
O1137       O  0.43506390  0.90073737  0.85109284    -0.52980
C1138       C  0.40650872  0.89809601  0.80178069     0.72780
Zr1139     Zr  0.48415223  0.90358717  0.72248829     2.54710
O1140       O  0.40531132  0.92042470  0.66169177    -0.80420
O1141       O  0.47280698  0.86803066  0.66003151    -0.93840
Zr1142     Zr  0.52285178  0.96381774  0.79848336     2.64680
O1143       O  0.45404775  0.48375170  0.72422985    -0.98790
O1144       O  0.53362666  0.50502965  0.83486206    -0.80860
O1145       O  0.53118094  0.93453335  0.72562431    -0.84210
O1146       O  0.47759327  0.93247741  0.79492561    -2.18920
O1147       O  0.58054504  0.84769509  0.92284040    -0.67600
O1148       O  0.52839131  0.87809468  0.95020559    -0.52170
C1149       C  0.55740049  0.85724361  0.95865883     0.71170
O1150       O  0.71317280  0.91126613  0.86924744    -0.60510
O1151       O  0.69953672  0.90993518  0.77314568    -0.52490
C1152       C  0.72728462  0.90925221  0.82447143     0.72970
O1153       O  0.62108490  0.92523108  0.98463379    -0.71910
O1154       O  0.54757863  0.94420728  0.94776206    -0.50580
C1155       C  0.58878033  0.94405787  0.98329360     0.74350
O1156       O  0.66365930  0.85322337  0.80181550    -0.67240
O1157       O  0.64769054  0.86867855  0.71460473    -0.54430
C1158       C  0.66252145  0.84973783  0.74984634     0.72730
Zr1159     Zr  0.59107679  0.85976963  0.82993815     2.77540
O1160       O  0.63102015  0.81667644  0.85040945    -0.97980
O1161       O  0.54133453  0.83355644  0.76741951    -0.78810
Zr1162     Zr  0.64087312  0.91952309  0.89639062     2.70070
O1163       O  0.70496003  0.89945485  0.97564907    -0.80050
O1164       O  0.67192920  0.95813626  0.91561616    -0.99140
Zr1165     Zr  0.61252882  0.91243236  0.73760063     2.21500
Zr1166     Zr  0.51493578  0.91070603  0.88269972     2.11130
O1167       O  0.59544237  0.88936883  0.90322823    -2.47820
O1168       O  0.64093809  0.88919430  0.82588697    -0.79850
O1169       O  0.51200147  0.88091995  0.81018514    -0.72040
O1170       O  0.60502251  0.94218947  0.81143811    -2.33000
O1171       O  0.56328823  0.88139379  0.73932207    -2.29210
O1172       O  0.56102996  0.94060365  0.87935385    -0.73800
H1173       H  0.44479896  0.93997293  0.79101699     0.78200
H1174       H  0.62641869  0.95373239  0.81469095     0.79280
H1175       H  0.61063226  0.88336359  0.94164744     0.81510
H1176       H  0.56416967  0.86962762  0.70912834     0.79120
H1177       H  0.56778091  0.50287221  0.85593813     0.42150
H1178       H  0.64379840  0.97139817  0.91254660     0.41120
H1179       H  0.70685327  0.88139657  0.96810338     0.40800
H1180       H  0.65577658  0.81723332  0.88685121     0.38730
H1181       H  0.56031101  0.82589610  0.74184297     0.41870
H1182       H  0.49287915  0.86842422  0.63420524     0.36650
H1183       H  0.39959687  0.93820324  0.67213587     0.42770
H1184       H  0.42797409  0.48714980  0.74267837     0.39180
H1185       H  0.60745826  0.80805650  0.85943921     0.44100
H1186       H  0.43973949  0.87234420  0.63545510     0.42820
H1187       H  0.46099509  0.50040859  0.71881648     0.42960
H1188       H  0.68978903  0.95702036  0.95630309     0.43320
O1189       O  0.39402178  0.99348482  0.12827166    -0.75550
O1190       O  0.31844704  0.99011931  0.09427726    -0.54460
C1191       C  0.36145542  0.98642523  0.08897595     0.78180
O1192       O  0.40529123  0.57959364  0.33098524    -0.60150
O1193       O  0.39860412  0.61243499  0.27157095    -0.53180
C1194       C  0.41411936  0.60066311  0.32128126     0.70190
O1195       O  0.34806761  0.01174036  0.31601195    -0.74710
O1196       O  0.30085809  0.99320806  0.24224633    -0.55280
C1197       C  0.32408771  0.99468278  0.29455673     0.76190
O1198       O  0.42864798  0.56825942  0.10210731    -0.59860
O1199       O  0.42960955  0.60089651  0.15916266    -0.52980
C1200       C  0.45163294  0.58313846  0.13476250     0.72780
Zr1201     Zr  0.39612526  0.53696606  0.13689688     2.54710
O1202       O  0.47436200  0.02380902  0.20336265    -0.80420
O1203       O  0.43375628  0.52443735  0.06155314    -0.93840
Zr1204     Zr  0.36415812  0.54931443  0.27999107     2.64680
O1205       O  0.44346600  0.02563501  0.32279188    -0.98790
O1206       O  0.34538778  0.55809200  0.37000532    -0.80860
O1207       O  0.36540300  0.02093984  0.20540147    -0.84210
O1208       O  0.39649695  0.56474910  0.21226137    -2.18920
O1209       O  0.30596267  0.59459596  0.02781915    -0.67600
O1210       O  0.30118608  0.62830831  0.07744561    -0.52170
C1211       C  0.28708258  0.61705009  0.02950742     0.71170
O1212       O  0.18722176  0.56281800  0.21652701    -0.60510
O1213       O  0.19605751  0.03063401  0.15688403    -0.52490
C1214       C  0.17049991  0.54657084  0.18211568     0.72970
O1215       O  0.23566115  0.63353124  0.19854119    -0.71910
O1216       O  0.30555444  0.64262617  0.19112749    -0.50580
C1217       C  0.26267854  0.64894100  0.19448673     0.74350
O1218       O  0.22207794  0.53050413  0.01902185    -0.67240
O1219       O  0.23076695  0.00316762  0.09097219    -0.54430
C1220       C  0.21457249  0.51044725  0.03963438     0.72730
Zr1221     Zr  0.26163885  0.56771255  0.05425912     2.77540
O1222       O  0.17943640  0.58797384  0.02136393    -0.97980
O1223       O  0.25396483  0.56246656  0.95359424    -0.78810
Zr1224     Zr  0.24094477  0.58809312  0.20444521     2.70070
O1225       O  0.15842697  0.60928005  0.17235052    -0.80050
O1226       O  0.24699661  0.59693503  0.30402031    -0.99140
Zr1227     Zr  0.28350484  0.51990561  0.16121639     2.21500
Zr1228     Zr  0.34859899  0.60361012  0.17048775     2.11130
O1229       O  0.26651275  0.59837784  0.12772121    -2.47820
O1230       O  0.23430851  0.55864065  0.12920355    -0.79850
O1231       O  0.34301294  0.57349527  0.09560199    -0.72040
O1232       O  0.28381568  0.54783958  0.23847290    -2.33000
O1233       O  0.31563768  0.53334105  0.09112011    -2.29210
O1234       O  0.32123320  0.58983458  0.24513621    -0.73800
H1235       H  0.42871900  0.56687300  0.23078128     0.78200
H1236       H  0.27033224  0.54172809  0.26564154     0.79280
H1237       H  0.24531461  0.61348113  0.11132928     0.81510
H1238       H  0.31386565  0.52610763  0.05455928     0.79120
H1239       H  0.31240751  0.55519852  0.36313735     0.42150
H1240       H  0.23759869  0.61526237  0.30529880     0.41120
H1241       H  0.15112695  0.60986152  0.13042904     0.40800
H1242       H  0.17626898  0.60440539  0.03940054     0.38730
H1243       H  0.28724988  0.55875922  0.95150191     0.41870
H1244       H  0.40739225  0.52349044  0.02697100     0.36650
H1245       H  0.48371454  0.00605925  0.19463474     0.42770
H1246       H  0.46545362  0.03567375  0.31481986     0.39180
H1247       H  0.17294099  0.59055301  0.98010284     0.44100
H1248       H  0.45098716  0.50714810  0.07088260     0.42820
H1249       H  0.44782229  0.02716983  0.36422725     0.42960
H1250       H  0.22046064  0.59033149  0.31153548     0.43320
O1251       O  0.87423802  0.99438082  0.12989212    -0.75550
O1252       O  0.79961289  0.99278267  0.08725917    -0.54460
C1253       C  0.84440353  0.98601900  0.08997938     0.78180
O1254       O  0.92320118  0.57205004  0.30318126    -0.60150
O1255       O  0.89139640  0.61011836  0.26528789    -0.53180
C1256       C  0.91410765  0.59529562  0.30952443     0.70190
O1257       O  0.84521954  0.01143218  0.29645736    -0.74710
O1258       O  0.78521103  0.99853652  0.22778318    -0.55280
C1259       C  0.81754344  0.99600265  0.27534707     0.76190
O1260       O  0.95339489  0.55181711  0.13026263    -0.59860
O1261       O  0.94106584  0.59324020  0.15094289    -0.52980
C1262       C  0.96793768  0.57243830  0.14369706     0.72780
Zr1263     Zr  0.88097332  0.53535657  0.11146215     2.54710
O1264       O  0.95106900  0.50465265  0.10924751    -0.80420
O1265       O  0.87804593  0.53732988  0.01131708    -0.93840
Zr1266     Zr  0.86176671  0.54921802  0.26365373     2.64680
O1267       O  0.93292828  0.51711394  0.29620426    -0.98790
O1268       O  0.84252363  0.56239375  0.35173518    -0.80860
O1269       O  0.85029334  0.52338339  0.18477300    -0.84210
O1270       O  0.89463459  0.56036673  0.19249129    -2.18920
O1271       O  0.81106963  0.59371168  0.01737521    -0.67600
O1272       O  0.82087045  0.62760299  0.06594405    -0.52170
C1273       C  0.80248168  0.61723960  0.01835088     0.71170
O1274       O  0.67794551  0.57931325  0.19539363    -0.60510
O1275       O  0.68404624  0.53952374  0.16260269    -0.52490
C1276       C  0.66013067  0.55987472  0.17820874     0.72970
O1277       O  0.75843645  0.64046481  0.19655775    -0.71910
O1278       O  0.82711505  0.64267330  0.17500981    -0.50580
C1279       C  0.78953441  0.65259198  0.18832577     0.74350
O1280       O  0.70811226  0.53765209  0.00971915    -0.67240
O1281       O  0.69021232  0.53098995  0.08911435    -0.54430
C1282       C  0.68705595  0.52624674  0.03827698     0.72730
Zr1283     Zr  0.75333291  0.57391223  0.03965765     2.77540
O1284       O  0.67817113  0.60320883  0.01211040    -0.97980
O1285       O  0.73503743  0.57068556  0.93688794    -0.78810
Zr1286     Zr  0.74510288  0.59676595  0.19330297     2.70070
O1287       O  0.67071391  0.62540821  0.15276681    -0.80050
O1288       O  0.74338374  0.60659577  0.29038286    -0.99140
Zr1289     Zr  0.76664215  0.52689839  0.14921503     2.21500
Zr1290     Zr  0.85770742  0.60139521  0.15761649     2.11130
O1291       O  0.77236141  0.60338006  0.11551361    -2.47820
O1292       O  0.72813188  0.56793496  0.11853360    -0.79850
O1293       O  0.83811724  0.57437762  0.07748275    -0.72040
O1294       O  0.77902085  0.55483574  0.22682258    -2.33000
O1295       O  0.79730604  0.53528220  0.07160242    -2.29210
O1296       O  0.82741466  0.59120966  0.23232134    -0.73800
H1297       H  0.92796125  0.55892213  0.21148578     0.78200
H1298       H  0.76482522  0.55043836  0.25514615     0.79280
H1299       H  0.75666654  0.61986885  0.10089839     0.81510
H1300       H  0.79208625  0.52619716  0.03657130     0.79120
H1301       H  0.81926197  0.55217292  0.35537075     0.42150
H1302       H  0.77108854  0.61488336  0.30621461     0.41120
H1303       H  0.65471903  0.61720595  0.11788420     0.40800
H1304       H  0.68446218  0.61926672  0.02964679     0.38730
H1305       H  0.75827059  0.55615517  0.93055130     0.41870
H1306       H  0.84587470  0.53496736  0.98923951     0.36650
H1307       H  0.96853509  0.00096628  0.14974419     0.42770
H1308       H  0.96052311  0.52563554  0.30294438     0.39180
H1309       H  0.67138387  0.60587491  0.97072417     0.44100
H1310       H  0.89989143  0.52223832  0.00476990     0.42820
H1311       H  0.93345738  0.51132828  0.33416332     0.42960
H1312       H  0.71539834  0.62013083  0.28620845     0.43320
C1313       C  0.52772617  0.55348665  0.13657285    -0.09420
C1314       C  0.50506821  0.57774932  0.14673623     0.06780
C1315       C  0.53450778  0.59493628  0.17137994    -0.03190
C1316       C  0.58417265  0.58795213  0.18372044    -0.07630
C1317       C  0.60711983  0.56383723  0.17205014     0.05890
C1318       C  0.57756008  0.54639869  0.14924081    -0.02660
Br1319     Br  0.60206597  0.01239077  0.13617138    -0.02350
H1320       H  0.50663396  0.53945888  0.11943919     0.09810
H1321       H  0.60478061  0.60219503  0.20146575     0.07820
Br1322     Br  0.50976224  0.62874405  0.18667241    -0.02780
C1323       C  0.09817650  0.54980638  0.21476627    -0.09420
C1324       C  0.11795584  0.54923025  0.16897972     0.06780
C1325       C  0.08786374  0.55941668  0.11633799    -0.03190
C1326       C  0.03956334  0.56916802  0.10981230    -0.07630
C1327       C  0.02008090  0.56983826  0.15563313     0.05890
C1328       C  0.05000982  0.55974196  0.20844003    -0.02660
Br1329     Br  0.02672602  0.55847141  0.27335374    -0.02350
H1330       H  0.12079773  0.04321302  0.25633984     0.09810
H1331       H  0.01682256  0.57582449  0.06833700     0.07820
Br1332     Br  0.11106273  0.56244504  0.05276858    -0.02780
C1333       C  0.64942331  0.96437634  0.04533363    -0.09420
C1334       C  0.60490078  0.96757419  0.00628370     0.06780
C1335       C  0.58607985  0.99148202  0.98018538    -0.03190
C1336       C  0.61577337  0.00923072  0.98385371    -0.07630
C1337       C  0.66255740  0.00484397  0.01922147     0.05890
C1338       C  0.67683593  0.98276690  0.05394130    -0.02660
Br1339     Br  0.72764282  0.97682390  0.12201500    -0.02350
H1340       H  0.66333765  0.94703943  0.06954603     0.09810
H1341       H  0.60054934  0.52759933  0.96468717     0.07820
Br1342     Br  0.51964166  0.00435707  0.95825478    -0.02780
C1343       C  0.38331875  0.98527356  0.93863382    -0.09420
C1344       C  0.42972890  0.97126741  0.95131345     0.06780
C1345       C  0.44704987  0.95945941  0.00645917    -0.03190
C1346       C  0.42090989  0.96287316  0.04617121    -0.07630
C1347       C  0.37597657  0.97775604  0.03542953     0.05890
C1348       C  0.35648449  0.98849533  0.97916710    -0.02660
Br1349     Br  0.29308212  0.50624342  0.95059002    -0.02350
H1350       H  0.36670974  0.99267389  0.89587729     0.09810
H1351       H  0.43700085  0.95414801  0.08784762     0.07820
Br1352     Br  0.50469302  0.93588454  0.03340094    -0.02780
C1353       C  0.13726730  0.99856783  0.00352018    -0.09420
C1354       C  0.18590342  0.99323963  0.00642487     0.06780
C1355       C  0.20882185  0.96804104  0.01276260    -0.03190
C1356       C  0.18647891  0.94998879  0.02581102    -0.07630
C1357       C  0.13840719  0.95504554  0.02332393     0.05890
C1358       C  0.11343609  0.97982540  0.01267271    -0.02660
Br1359     Br  0.04890982  0.98982707  0.01491480    -0.02350
H1360       H  0.11881007  0.51762009  0.99915039     0.09810
H1361       H  0.20655161  0.93127790  0.03567888     0.07820
Br1362     Br  0.27264459  0.95683146  0.01028593    -0.02780
C1363       C  0.85604058  0.91216284  0.89771307    -0.09420
C1364       C  0.87983712  0.88965142  0.88151776     0.06780
C1365       C  0.85184392  0.87431907  0.84317601    -0.03190
C1366       C  0.80273307  0.88232172  0.82015399    -0.07630
C1367       C  0.77959930  0.90486485  0.83615670     0.05890
C1368       C  0.80668092  0.91962675  0.87598278    -0.02660
Br1369     Br  0.77708321  0.95014115  0.90236281    -0.02350
H1370       H  0.87583906  0.92420378  0.92689603     0.09810
H1371       H  0.78196110  0.87004115  0.79250516     0.07820
Br1372     Br  0.87612407  0.84115244  0.82326985    -0.02780
C1373       C  0.32104472  0.90797074  0.74995767    -0.09420
C1374       C  0.35669897  0.89634328  0.79709381     0.06780
C1375       C  0.34331157  0.88470870  0.83879416    -0.03190
C1376       C  0.29505585  0.88728246  0.83581450    -0.07630
C1377       C  0.25964884  0.90056349  0.79070052     0.05890
C1378       C  0.27294980  0.90980373  0.74618614    -0.02660
Br1379     Br  0.22749742  0.92648259  0.68133098    -0.02350
H1380       H  0.33050266  0.91659287  0.71669331     0.09810
H1381       H  0.28506796  0.87903861  0.86917297     0.07820
Br1382     Br  0.38888296  0.86413503  0.89849854    -0.02780
C1383       C  0.84885537  0.98298237  0.98687699    -0.09420
C1384       C  0.86427805  0.97335536  0.04342817     0.06780
C1385       C  0.90854355  0.95681086  0.05881046    -0.03190
C1386       C  0.93570137  0.95091161  0.02059756    -0.07630
C1387       C  0.92279777  0.96175950  0.96566820     0.05890
C1388       C  0.87762240  0.97748674  0.94839146    -0.02660
Br1389     Br  0.85495868  0.99294317  0.87454713    -0.02350
H1390       H  0.81564871  0.99606294  0.97336613     0.09810
H1391       H  0.96900752  0.93801918  0.03597864     0.07820
Br1392     Br  0.93868371  0.94314920  0.13395277    -0.02780
C1393       C  0.71554192  0.62063897  0.87158967    -0.09420
C1394       C  0.67450154  0.63669092  0.87760079     0.06780
C1395       C  0.67984311  0.65045385  0.92897719    -0.03190
C1396       C  0.72341281  0.64643962  0.97343049    -0.07630
C1397       C  0.76366726  0.62955715  0.96747429     0.05890
C1398       C  0.75958250  0.61822164  0.91373490    -0.02660
Br1399     Br  0.81398235  0.59850036  0.89583884    -0.02350
H1400       H  0.71419433  0.61013311  0.83317393     0.09810
H1401       H  0.72464304  0.65530047  0.01393950     0.07820
Br1402     Br  0.62709088  0.67302160  0.94339183    -0.02780
C1403       C  0.42819409  0.61769352  0.41999247    -0.09420
C1404       C  0.44691255  0.60922606  0.37413460     0.06780
C1405       C  0.49543381  0.59781400  0.38864148    -0.03190
C1406       C  0.52357689  0.59556962  0.44570214    -0.07630
C1407       C  0.50534454  0.60429484  0.49171917     0.05890
C1408       C  0.45643360  0.61536914  0.47766095    -0.02660
Br1409     Br  0.42522829  0.62646564  0.53496855    -0.02350
H1410       H  0.39032220  0.62463085  0.41118862     0.09810
H1411       H  0.56051353  0.58663145  0.45404766     0.07820
Br1412     Br  0.52382834  0.58218221  0.33186575    -0.02780
C1413       C  0.62598086  0.51934172  0.75850281    -0.09420
C1414       C  0.62733862  0.50049676  0.71786667     0.06780
C1415       C  0.64879244  0.50472456  0.67477744    -0.03190
C1416       C  0.66205807  0.52832665  0.66951872    -0.07630
C1417       C  0.65684050  0.54776668  0.70847990     0.05890
C1418       C  0.64057725  0.54207056  0.75475104    -0.02660
Br1419     Br  0.63388143  0.56559186  0.81358822    -0.02350
H1420       H  0.61254151  0.51663138  0.79406465     0.09810
H1421       H  0.67407891  0.53184385  0.63329264     0.07820
Br1422     Br  0.65904425  0.97955223  0.62091174    -0.02780
C1423       C  0.69702974  0.80444235  0.77636694    -0.09420
C1424       C  0.67450234  0.82268975  0.73282325     0.06780
C1425       C  0.65808441  0.81368836  0.67735807    -0.03190
C1426       C  0.65895672  0.78789897  0.66804359    -0.07630
C1427       C  0.67664057  0.76994925  0.71286804     0.05890
C1428       C  0.69805252  0.77865101  0.76712343    -0.02660
Br1429     Br  0.73036147  0.75631580  0.83021346    -0.02350
H1430       H  0.71263300  0.81030611  0.81908025     0.09810
H1431       H  0.64390608  0.78201465  0.62516431     0.07820
Br1432     Br  0.63324517  0.83528331  0.61230242    -0.02780
C1433       C  0.19814705  0.63735868  0.98678388    -0.09420
C1434       C  0.24236467  0.62533380  0.97969857     0.06780
C1435       C  0.24029852  0.61386269  0.92628679    -0.03190
C1436       C  0.19659298  0.61114877  0.88629514    -0.07630
C1437       C  0.15201330  0.62329522  0.89212589     0.05890
C1438       C  0.15407738  0.63654853  0.94409889    -0.02660
Br1439     Br  0.09633901  0.64998461  0.96329380    -0.02350
H1440       H  0.19719007  0.64570067  0.02728281     0.09810
H1441       H  0.19871797  0.60004713  0.84969790     0.07820
Br1442     Br  0.29749747  0.60399297  0.90303767    -0.02780
C1443       C  0.83580687  0.65593597  0.68951406    -0.09420
C1444       C  0.81020728  0.67552862  0.65140901     0.06780
C1445       C  0.83492233  0.69098088  0.63058958    -0.03190
C1446       C  0.88422117  0.68675680  0.64927977    -0.07630
C1447       C  0.90983108  0.66691737  0.68673447     0.05890
C1448       C  0.88536166  0.65121847  0.70665402    -0.02660
Br1449     Br  0.91735954  0.62388495  0.75848871    -0.02350
H1450       H  0.81718716  0.64407215  0.70593514     0.09810
H1451       H  0.90281393  0.69852022  0.63243879     0.07820
Br1452     Br  0.80480532  0.71641633  0.57298102    -0.02780
C1453       C  0.33325240  0.67085433  0.65647693    -0.09420
C1454       C  0.32764526  0.65416730  0.69471152     0.06780
C1455       C  0.36814869  0.63829772  0.72809308    -0.03190
C1456       C  0.41346048  0.63953590  0.72251492    -0.07630
C1457       C  0.41912285  0.65653448  0.68409585     0.05890
C1458       C  0.37768379  0.67220163  0.65058632    -0.02660
Br1459     Br  0.37591750  0.69543020  0.59295277    -0.02350
H1460       H  0.30225311  0.68279514  0.62966133     0.09810
H1461       H  0.44433012  0.62740230  0.74882249     0.07820
Br1462     Br  0.36370245  0.61589776  0.78393282    -0.02780
C1463       C  0.96759509  0.59286713  0.47421512    -0.09420
C1464       C  0.96827621  0.61773839  0.48760923     0.06780
C1465       C  0.94403439  0.63576549  0.44339339    -0.03190
C1466       C  0.92591847  0.62863368  0.38639831    -0.07630
C1467       C  0.92967720  0.60340859  0.37146379     0.05890
C1468       C  0.94813912  0.58557116  0.41814234    -0.02660
Br1469     Br  0.95011764  0.55023963  0.41283429    -0.02350
H1470       H  0.98532311  0.57875373  0.50699242     0.09810
H1471       H  0.90983081  0.64291547  0.35368147     0.07820
Br1472     Br  0.93595497  0.67079054  0.45878622    -0.02780
C1473       C  0.13075825  0.01942928  0.67314947    -0.09420
C1474       C  0.11841165  0.54027885  0.70651699     0.06780
C1475       C  0.09302730  0.53519684  0.74483296    -0.03190
C1476       C  0.08343006  0.01124332  0.75149908    -0.07630
C1477       C  0.09492597  0.99025713  0.71892821     0.05890
C1478       C  0.11849017  0.99516615  0.67813291    -0.02660
Br1479     Br  0.12843057  0.97077120  0.62284700    -0.02350
H1480       H  0.14731723  0.52230323  0.64046716     0.09810
H1481       H  0.06525368  0.00944533  0.78316587     0.07820
Br1482     Br  0.06702809  0.56057042  0.78957261    -0.02780
C1483       C  0.12367579  0.79439464  0.78365289    -0.09420
C1484       C  0.15193313  0.80715085  0.76175628     0.06780
C1485       C  0.19232832  0.79304538  0.74965966    -0.03190
C1486       C  0.20444112  0.76713029  0.76075542    -0.07630
C1487       C  0.17766267  0.75439521  0.78584754     0.05890
C1488       C  0.13646120  0.76869029  0.79710238    -0.02660
Br1489     Br  0.09574589  0.75486537  0.83120851    -0.02350
H1490       H  0.09244663  0.80496131  0.79331820     0.09810
H1491       H  0.23521426  0.75686563  0.74942939     0.07820
Br1492     Br  0.23205246  0.80876832  0.71838595    -0.02780
C1493       C  0.70690850  0.68350681  0.40078740    -0.09420
C1494       C  0.67133102  0.69661033  0.42447803     0.06780
C1495       C  0.66175366  0.72299611  0.41984090    -0.03190
C1496       C  0.68837669  0.73546415  0.39630464    -0.07630
C1497       C  0.72451226  0.72290010  0.37468999     0.05890
C1498       C  0.73331257  0.69657720  0.37545102    -0.02660
Br1499     Br  0.78148183  0.67834872  0.34427011    -0.02350
H1500       H  0.71643073  0.66340885  0.40545288     0.09810
H1501       H  0.68293012  0.75560695  0.39843305     0.07820
Br1502     Br  0.61891253  0.74420401  0.45453944    -0.02780
C1503       C  0.02990126  0.79294555  0.53154898    -0.09420
C1504       C  0.98244220  0.79448021  0.53247001     0.06780
C1505       C  0.97318314  0.79016758  0.58396152    -0.03190
C1506       C  0.01083136  0.78129541  0.63084949    -0.07630
C1507       C  0.05691125  0.77273748  0.62460457     0.05890
C1508       C  0.06729417  0.78231835  0.57832362    -0.02660
Br1509     Br  0.13088728  0.78512333  0.58363482    -0.02350
H1510       H  0.03776205  0.79878354  0.49405992     0.09810
H1511       H  0.00213525  0.77670703  0.66882050     0.07820
Br1512     Br  0.90968165  0.79277017  0.59069181    -0.02780
C1513       C  0.81113541  0.71853516  0.19253527    -0.09420
C1514       C  0.76527236  0.73256337  0.18481808     0.06780
C1515       C  0.72671171  0.71982580  0.17820256    -0.03190
C1516       C  0.73522998  0.69372342  0.18066505    -0.07630
C1517       C  0.78164454  0.67999309  0.19117879     0.05890
C1518       C  0.81995514  0.69287104  0.19819502    -0.02660
Br1519     Br  0.88639768  0.67757678  0.22108673    -0.02350
H1520       H  0.84167952  0.72755809  0.19910767     0.09810
H1521       H  0.70540381  0.68415287  0.17424633     0.07820
Br1522     Br  0.66178877  0.73642297  0.16619297    -0.02780
C1523       C  0.85604647  0.92767771  0.29588821    -0.09420
C1524       C  0.84144436  0.92350829  0.34288398     0.06780
C1525       C  0.82408051  0.94354127  0.37366326    -0.03190
C1526       C  0.81904300  0.96796488  0.35404604    -0.07630
C1527       C  0.82849834  0.97170989  0.30248698     0.05890
C1528       C  0.84717309  0.95135742  0.27392388    -0.02660
Br1529     Br  0.85351955  0.95359206  0.19983098    -0.02350
H1530       H  0.86813582  0.91209909  0.27151593     0.09810
H1531       H  0.80469952  0.98362279  0.37633238     0.07820
Br1532     Br  0.80419948  0.93803205  0.43927110    -0.02780
C1533       C  0.62719403  0.82114644  0.09457154    -0.09420
C1534       C  0.61658772  0.83858673  0.13472191     0.06780
C1535       C  0.57920080  0.85882429  0.11718038    -0.03190
C1536       C  0.55558517  0.86238361  0.05938388    -0.07630
C1537       C  0.57052798  0.84685130  0.01768897     0.05890
C1538       C  0.60509799  0.82517645  0.03649830    -0.02660
Br1539     Br  0.62661589  0.80097936  0.98646040    -0.02350
H1540       H  0.65580048  0.80526587  0.10803828     0.09810
H1541       H  0.52811593  0.87877328  0.04718532     0.07820
Br1542     Br  0.56094970  0.88264146  0.17019775    -0.02780
C1543       C  0.93655701  0.86370888  0.53558579    -0.09420
C1544       C  0.89592255  0.85976013  0.55036630     0.06780
C1545       C  0.89761489  0.85758994  0.60760660    -0.03190
C1546       C  0.93966905  0.85955452  0.64855594    -0.07630
C1547       C  0.97956989  0.86414116  0.63361292     0.05890
C1548       C  0.97837897  0.86544948  0.57651568    -0.02660
Br1549     Br  0.03303136  0.86791759  0.55149953    -0.02350
H1550       H  0.93651020  0.86491747  0.49161177     0.09810
H1551       H  0.94043019  0.85843747  0.69228921     0.07820
Br1552     Br  0.84380968  0.85357398  0.63284284    -0.02780
C1553       C  0.52737203  0.83698449  0.36097994    -0.09420
C1554       C  0.50809415  0.81556188  0.34058097     0.06780
C1555       C  0.53892842  0.79271489  0.33903091    -0.03190
C1556       C  0.58724448  0.79182959  0.35763564    -0.07630
C1557       C  0.60610997  0.81315793  0.37638697     0.05890
C1558       C  0.57612507  0.83602115  0.37785303    -0.02660
Br1559     Br  0.59912050  0.86696879  0.39247074    -0.02350
H1560       H  0.50463995  0.85482883  0.36227183     0.09810
H1561       H  0.61023948  0.77470350  0.35227948     0.07820
Br1562     Br  0.52047927  0.76205275  0.30832890    -0.02780
C1563       C  0.06701659  0.80163543  0.29696379    -0.09420
C1564       C  0.08398761  0.82383765  0.29485309     0.06780
C1565       C  0.05168759  0.84703177  0.29041346    -0.03190
C1566       C  0.00505355  0.84729276  0.29131484    -0.07630
C1567       C  0.98918967  0.82511950  0.29504803     0.05890
C1568       C  0.02008567  0.80213158  0.29690252    -0.02660
Br1569     Br  0.00114541  0.77093265  0.30430582    -0.02350
H1570       H  0.09057213  0.78373541  0.30028412     0.09810
H1571       H  0.98098130  0.86496881  0.28952046     0.07820
Br1572     Br  0.06684986  0.87957158  0.28490330    -0.02780
C1573       C  0.21353659  0.73772944  0.56400015    -0.09420
C1574       C  0.17344611  0.72829794  0.52930200     0.06780
C1575       C  0.14692117  0.74199272  0.47960695    -0.03190
C1576       C  0.16423925  0.76190112  0.46225582    -0.07630
C1577       C  0.20747452  0.76934088  0.49409546     0.05890
C1578       C  0.22935814  0.75831023  0.54790888    -0.02660
Br1579     Br  0.27741549  0.77179969  0.60342665    -0.02350
H1580       H  0.23274668  0.72945248  0.60534947     0.09810
H1581       H  0.14473548  0.77094524  0.42172808     0.07820
Br1582     Br  0.08734299  0.73465201  0.43400020    -0.02780
C1583       C  0.44836045  0.74320772  0.52046466    -0.09420
C1584       C  0.48812995  0.73336782  0.50027272     0.06780
C1585       C  0.47902069  0.72078597  0.44791711    -0.03190
C1586       C  0.43203214  0.71859829  0.41824297    -0.07630
C1587       C  0.39223554  0.73066972  0.43593969     0.05890
C1588       C  0.40163205  0.74166950  0.48955182    -0.02660
Br1589     Br  0.35265010  0.75507726  0.52316625    -0.02350
H1590       H  0.45336435  0.75265934  0.56069936     0.09810
H1591       H  0.42620478  0.70924355  0.37778700     0.07820
Br1592     Br  0.52762298  0.70668434  0.41291992    -0.02780
C1593       C  0.25929461  0.69045483  0.15581721    -0.09420
C1594       C  0.24325624  0.67595121  0.18997524     0.06780
C1595       C  0.21114889  0.68784535  0.21938462    -0.03190
C1596       C  0.20030536  0.71391949  0.21914454    -0.07630
C1597       C  0.22201106  0.72858939  0.19145591     0.05890
C1598       C  0.24905348  0.71642122  0.15606346    -0.02660
Br1599     Br  0.27750133  0.73317932  0.11084441    -0.02350
H1600       H  0.28196811  0.68150150  0.13042153     0.09810
H1601       H  0.17841767  0.72271292  0.24555795     0.07820
Br1602     Br  0.18577492  0.67005860  0.26641154    -0.02780
C1603       C  0.27241032  0.94713234  0.34470076    -0.09420
C1604       C  0.30501557  0.92638870  0.33607241     0.06780
C1605       C  0.35096854  0.92976177  0.33434089    -0.03190
C1606       C  0.36020176  0.95366738  0.33273681    -0.07630
C1607       C  0.32432988  0.97416905  0.33056514     0.05890
C1608       C  0.28178769  0.97111014  0.34139954    -0.02660
Br1609     Br  0.23339922  0.99926366  0.34399230    -0.02350
H1610       H  0.23789659  0.94491544  0.34808274     0.09810
H1611       H  0.39314770  0.95613704  0.32481668     0.07820
Br1612     Br  0.40182905  0.90364174  0.32630292    -0.02780
C1613       C  0.21044779  0.87851059  0.06595926    -0.09420
C1614       C  0.17210109  0.87088315  0.07984071     0.06780
C1615       C  0.17749269  0.86351931  0.13542203    -0.03190
C1616       C  0.22223093  0.86234453  0.17503403    -0.07630
C1617       C  0.26112557  0.86801955  0.15942079     0.05890
C1618       C  0.25483498  0.87672479  0.10478476    -0.02660
Br1619     Br  0.30713547  0.88291882  0.07928129    -0.02350
H1620       H  0.20718386  0.88367054  0.02284370     0.09810
H1621       H  0.22783794  0.85517541  0.21697222     0.07820
Br1622     Br  0.12900213  0.84964561  0.15445255    -0.02780
C1623       C  0.47582747  0.87656197  0.49912757    -0.09420
C1624       C  0.42783739  0.88146928  0.49984360     0.06780
C1625       C  0.41170405  0.90261868  0.52794389    -0.03190
C1626       C  0.44444327  0.91643830  0.56067673    -0.07630
C1627       C  0.49374303  0.90884896  0.56844264     0.05890
C1628       C  0.50868423  0.89034724  0.53263877    -0.02660
Br1629     Br  0.57153646  0.88504781  0.52398689    -0.02350
H1630       H  0.48776948  0.86191116  0.47262416     0.09810
H1631       H  0.43142472  0.93261011  0.58239529     0.07820
Br1632     Br  0.34539215  0.91355500  0.52180114    -0.02780
loop_ 
_geom_bond_atom_site_label_1 
_geom_bond_atom_site_label_2 
_geom_bond_distance 
_geom_bond_site_symmetry_2 
_ccdc_geom_bond_type 
O1          Zr13   2.487       .  S
O1            C3   1.285       .  A
O2          Zr39   2.347       .  S
O2            C3   1.255       .  A
C3          C788   1.472       .  S
O4          Zr16   2.599       .  S
O4            C6   1.320       .  A
O5          Zr40   2.316       .  S
O5            C6   1.270       .  A
C6          C761   1.507       .  S
O7          Zr16   2.492       .  S
O7            C9   1.299       .  A
O8          Zr39   2.387       .  S
O8            C9   1.276       .  A
C9          C808   1.471       .  S
O10         Zr13   2.375       .  S
O10          C12   1.275       .  A
O11         Zr40   2.463       .  S
O11          C12   1.296       .  A
C12         C748   1.482       .  S
Zr13         O14   2.436       .  S
Zr13         O15   2.454       .  S
Zr13         O19   2.359       .  S
Zr13         O20   2.355       .  S
Zr13         O43   2.451       .  S
Zr13         O45   2.349       .  S
O14          H57   0.990       .  S
O15          H56   0.989       .  S
O15          H60   0.986       .  S
Zr16         O17   2.436       .  S
Zr16         O18   2.433       .  S
Zr16         O20   2.359       .  S
Zr16         O19   2.400       .  S
Zr16         O44   2.434       .  S
Zr16         O46   2.363       .  S
O17          H58   0.990       .  S
O17          H61   0.990       .  S
O18          H51   0.990       .  S
O19         Zr39   2.397       .  S
O20         Zr40   2.413       .  S
O20          H47   0.965       .  S
O21         Zr33   2.492       .  S
O21          C23   1.296       .  A
O22         Zr40   2.381       .  S
O22          C23   1.281       .  A
C23         C781   1.487       .  S
O24         Zr36   2.404       .  S
O24          C26   1.275       .  A
O25         Zr39   2.356       .  S
O25          C26   1.271       .  A
C26         C738   1.458       .  S
O27         Zr36   2.385       .  S
O27          C29   1.249       .  A
O28         Zr40   2.545       .  S
O28          C29   1.297       .  A
C29         C771   1.502       .  S
O30         Zr33   2.383       .  S
O30          C32   1.259       .  A
O31         Zr39   2.420       .  S
O31          C32   1.265       .  A
C32         C801   1.452       .  S
Zr33         O34   2.437       .  S
Zr33         O35   2.435       .  S
Zr33         O41   2.305       .  S
Zr33         O42   2.408       .  S
Zr33         O45   2.390       .  S
Zr33         O43   2.399       .  S
O34          H54   0.989       .  S
O34          H59   0.990       .  S
O35          H55   0.990       .  S
Zr36         O37   2.427       .  S
Zr36         O38   2.427       .  S
Zr36         O42   2.371       .  S
Zr36         O41   2.391       .  S
Zr36         O46   2.416       .  S
Zr36         O44   2.380       .  S
O37          H53   0.990       .  S
O38          H52   0.989       .  S
O38          H62   0.989       .  S
Zr39         O42   2.399       .  S
Zr39         O44   2.364       .  S
Zr39         O45   2.297       .  S
Zr40         O41   2.409       .  S
Zr40         O43   2.442       .  S
Zr40         O46   2.393       .  S
O41          H49   0.962       .  S
O44          H48   0.963       .  S
O45          H50   0.968       .  S
O63         Zr75   2.440       .  S
O63          C65   1.281       .  A
O64        Zr101   2.372       .  S
O64          C65   1.261       .  A
C65         C728   1.454       .  S
O66         Zr78   2.492       .  S
O66          C68   1.295       .  A
O67        Zr102   2.406       .  S
O67          C68   1.283       .  A
C68         C681   1.482       .  S
O69         Zr78   2.449       .  S
O69          C71   1.290       .  A
O70        Zr101   2.413       .  S
O70          C71   1.281       .  A
C71         C688   1.467       .  S
O72         Zr75   2.401       .  S
O72          C74   1.279       .  A
O73        Zr102   2.359       .  S
O73          C74   1.276       .  A
C74         C741   1.432       .  S
Zr75         O76   2.435       .  S
Zr75         O77   2.438       .  S
Zr75         O81   2.369       .  S
Zr75         O82   2.368       .  S
Zr75        O105   2.392       .  S
Zr75        O107   2.352       .  S
O76         H119   0.990       .  S
O77         H118   0.990       .  S
O77         H122   0.991       .  S
Zr78         O79   2.436       .  S
Zr78         O80   2.434       .  S
Zr78         O82   2.374       .  S
Zr78         O81   2.369       .  S
Zr78        O106   2.386       .  S
Zr78        O108   2.351       .  S
O79         H120   0.990       .  S
O79         H123   0.990       .  S
O80         H113   0.990       .  S
O81        Zr101   2.381       .  S
O82        Zr102   2.384       .  S
O82         H109   0.965       .  S
O83         Zr95   2.456       .  S
O83          C85   1.291       .  A
O84        Zr102   2.406       .  S
O84          C85   1.282       .  A
C85         C718   1.466       .  S
O86         Zr98   2.425       .  S
O86          C88   1.282       .  A
O87        Zr101   2.406       .  S
O87          C88   1.282       .  A
C88         C751   1.457       .  S
O89         Zr98   2.441       .  S
O89          C91   1.290       .  A
O90        Zr102   2.383       .  S
O90          C91   1.274       .  A
C91         C698   1.476       .  S
O92         Zr95   2.441       .  S
O92          C94   1.288       .  A
O93        Zr101   2.369       .  S
O93          C94   1.276       .  A
C94         C708   1.433       .  S
Zr95         O96   2.437       .  S
Zr95         O97   2.437       .  S
Zr95        O103   2.376       .  S
Zr95        O104   2.391       .  S
Zr95        O107   2.352       .  S
Zr95        O105   2.361       .  S
O96         H116   0.990       .  S
O96         H121   0.990       .  S
O97         H117   0.990       .  S
Zr98         O99   2.439       .  S
Zr98        O100   2.436       .  S
Zr98        O104   2.371       .  S
Zr98        O103   2.344       .  S
Zr98        O108   2.373       .  S
Zr98        O106   2.382       .  S
O99         H115   0.990       .  S
O100        H114   0.990       .  S
O100        H124   0.990       .  S
Zr101       O104   2.373       .  S
Zr101       O106   2.376       .  S
Zr101       O107   2.396       .  S
Zr102       O103   2.373       .  S
Zr102       O105   2.371       .  S
Zr102       O108   2.363       .  S
O103        H111   0.964       .  S
O106        H110   0.965       .  S
O107        H112   0.965       .  S
O125       Zr137   2.566       .  S
O125        C127   1.305       .  A
O126       Zr163   2.330       .  S
O126        C127   1.256       .  A
C127        C758   1.513       .  S
O128       Zr140   2.423   1_655  S
O128        C130   1.281       .  A
O129       Zr164   2.404   1_655  S
O129        C130   1.281       .  A
C130        C631   1.461       .  S
O131       Zr140   2.371       .  S
O131        C133   1.273       .  A
O132       Zr163   2.533       .  S
O132        C133   1.306       .  A
C133        C691   1.497       .  S
O134       Zr137   2.374       .  S
O134        C136   1.276       .  A
O135       Zr164   2.591       .  S
O135        C136   1.321       .  A
C136        C648   1.505   1_455  S
Zr137       O138   2.435       .  S
Zr137       O139   2.434       .  S
Zr137       O143   2.331       .  S
Zr137       O144   2.425       .  S
Zr137       O167   2.435       .  S
Zr137       O169   2.326       .  S
O138        H181   0.990       .  S
O139        H180   0.990       .  S
O139        H184   0.990       .  S
Zr140       O141   2.439   1_455  S
Zr140       O142   2.436   1_455  S
Zr140       O144   2.303       .  S
Zr140       O143   2.380       .  S
Zr140       O168   2.344       .  S
Zr140       O170   2.354       .  S
O141        H182   0.989       .  S
O141        H185   0.990       .  S
O142        H175   0.990       .  S
O143       Zr163   2.373       .  S
O144       Zr164   2.416       .  S
O144        H171   0.963       .  S
O145       Zr157   2.645       .  S
O145        C147   1.327       .  A
O146       Zr164   2.403       .  S
O146        C147   1.281       .  A
C147        C658   1.568       .  S
O148       Zr160   2.542       .  S
O148        C150   1.301       .  A
O149       Zr163   2.373       .  S
O149        C150   1.271       .  A
C150        C671   1.510       .  S
O151       Zr160   2.366       .  S
O151        C153   1.254       .  A
O152       Zr164   2.622       .  S
O152        C153   1.312       .  A
C153        C621   1.553       .  S
O154       Zr157   2.452       .  S
O154        C156   1.291       .  A
O155       Zr163   2.419       .  S
O155        C156   1.290       .  A
C156        C638   1.475       .  S
Zr157       O158   2.436       .  S
Zr157       O159   2.434       .  S
Zr157       O165   2.302       .  S
Zr157       O166   2.459       .  S
Zr157       O169   2.401       .  S
Zr157       O167   2.348       .  S
O158        H178   0.990       .  S
O158        H183   0.990       .  S
O159        H179   0.990       .  S
Zr160       O161   2.422       .  S
Zr160       O162   2.434       .  S
Zr160       O166   2.359       .  S
Zr160       O165   2.459       .  S
Zr160       O170   2.420       .  S
Zr160       O168   2.294       .  S
O161        H177   0.990       .  S
O162        H176   0.989       .  S
O162        H186   0.991       .  S
Zr163       O166   2.384       .  S
Zr163       O168   2.372       .  S
Zr163       O169   2.406       .  S
Zr164       O165   2.407       .  S
Zr164       O167   2.408       .  S
Zr164       O170   2.417       .  S
O165        H173   0.965       .  S
O168        H172   0.954       .  S
O169        H174   0.966       .  S
O187       Zr199   2.557       .  S
O187        C189   1.307       .  A
O188       Zr225   2.337       .  S
O188        C189   1.269       .  A
C189        C678   1.492       .  S
O190       Zr202   2.421       .  S
O190        C192   1.281       .  A
O191       Zr226   2.440       .  S
O191        C192   1.289       .  A
C192        C641   1.492       .  S
O193       Zr202   2.375       .  S
O193        C195   1.252       .  A
O194       Zr225   2.529       .  S
O194        C195   1.292       .  A
C195        C768   1.502       .  S
O196       Zr199   2.395       .  S
O196        C198   1.267       .  A
O197       Zr226   2.551       .  S
O197        C198   1.300       .  A
C198        C591   1.528       .  S
Zr199       O200   2.433       .  S
Zr199       O201   2.437       .  S
Zr199       O205   2.344       .  S
Zr199       O206   2.442       .  S
Zr199       O229   2.413       .  S
Zr199       O231   2.323       .  S
O200        H243   0.990       .  S
O201        H242   0.990       .  S
O201        H246   0.990       .  S
Zr202       O203   2.443       .  S
Zr202       O204   2.433       .  S
Zr202       O206   2.326       .  S
Zr202       O205   2.417       .  S
Zr202       O230   2.376       .  S
Zr202       O232   2.352       .  S
O203        H244   0.989       .  S
O203        H247   0.986       .  S
O204        H237   0.990       .  S
O205       Zr225   2.358       .  S
O206       Zr226   2.406       .  S
O206        H233   0.960       .  S
O207       Zr219   2.599       .  S
O207        C209   1.318       .  A
O208       Zr226   2.350       .  S
O208        C209   1.274       .  A
C209        C601   1.523       .  S
O210       Zr222   2.548       .  S
O210        C212   1.308       .  A
O211       Zr225   2.408       .  S
O211        C212   1.283       .  A
C212        C611   1.520       .  S
O213       Zr222   2.412       .  S
O213        C215   1.271       .  A
O214       Zr226   2.568       .  S
O214        C215   1.311       .  A
C215        C578   1.528       .  S
O216       Zr219   2.403       .  S
O216        C218   1.267       .  A
O217       Zr225   2.413       .  S
O217        C218   1.272       .  A
C218        C628   1.467       .  S
Zr219       O220   2.437       .  S
Zr219       O221   2.435       .  S
Zr219       O227   2.315       .  S
Zr219       O228   2.436       .  S
Zr219       O231   2.406       .  S
Zr219       O229   2.325       .  S
O220        H240   0.989       .  S
O220        H245   0.990       .  S
O221        H241   0.990       .  S
Zr222       O223   2.434       .  S
Zr222       O224   2.436       .  S
Zr222       O228   2.348       .  S
Zr222       O227   2.437       .  S
Zr222       O232   2.419       .  S
Zr222       O230   2.328       .  S
O223        H239   0.988       .  S
O224        H238   0.991       .  S
O224        H248   0.990       .  S
Zr225       O228   2.419       .  S
Zr225       O230   2.388       .  S
Zr225       O231   2.450       .  S
Zr226       O227   2.421       .  S
Zr226       O229   2.427       .  S
Zr226       O232   2.403       .  S
O227        H235   0.960       .  S
O230        H234   0.963       .  S
O231        H236   0.967       .  S
O249       Zr261   2.391       .  S
O249        C251   1.280   1_556  A
O250       Zr287   2.454   1_554  S
O250        C251   1.291       .  A
C251        C798   1.465       .  S
O252       Zr264   2.461       .  S
O252        C254   1.287       .  A
O253       Zr288   2.420       .  S
O253        C254   1.286       .  A
C254        C561   1.472       .  S
O255       Zr264   2.409       .  S
O255        C257   1.268   1_556  A
O256       Zr287   2.438   1_554  S
O256        C257   1.268       .  A
C257        C541   1.470       .  S
O258       Zr261   2.395       .  S
O258        C260   1.266       .  A
O259       Zr288   2.543       .  S
O259        C260   1.303       .  A
C260        C668   1.491       .  S
Zr261       O262   2.437       .  S
Zr261       O263   2.443       .  S
Zr261       O267   2.338       .  S
Zr261       O268   2.399       .  S
Zr261       O291   2.350       .  S
Zr261       O293   2.360       .  S
O262        H305   0.990       .  S
O263        H304   0.990       .  S
O263        H308   0.989       .  S
Zr264       O265   2.439       .  S
Zr264       O266   2.429       .  S
Zr264       O268   2.348       .  S
Zr264       O267   2.351       .  S
Zr264       O292   2.410       .  S
Zr264       O294   2.328       .  S
O265        H306   0.990       .  S
O265        H309   0.989       .  S
O266        H299   0.990       .  S
O267       Zr287   2.397       .  S
O268       Zr288   2.394       .  S
O268        H295   0.962       .  S
O269       Zr281   2.422   1_455  S
O269        C271   1.275       .  A
O270       Zr288   2.381       .  S
O270        C271   1.279       .  A
C271        C731   1.449   1_455  S
O272       Zr284   2.567   1_655  S
O272        C274   1.305       .  A
O273       Zr287   2.366       .  S
O273        C274   1.268   1_455  A
C274        C571   1.529       .  S
O275       Zr284   2.463       .  S
O275        C277   1.295       .  A
O276       Zr288   2.622       .  S
O276        C277   1.326       .  A
C277        C661   1.575       .  S
O278       Zr281   2.400       .  S
O278        C280   1.271       .  A
O279       Zr287   2.497   1_655  S
O279        C280   1.298       .  A
C280        C548   1.500       .  S
Zr281       O282   2.438       .  S
Zr281       O283   2.438       .  S
Zr281       O289   2.411   1_655  S
Zr281       O290   2.367       .  S
Zr281       O293   2.401   1_655  S
Zr281       O291   2.347   1_655  S
O282        H302   0.990       .  S
O282        H307   0.990       .  S
O283        H303   0.990       .  S
Zr284       O285   2.434   1_455  S
Zr284       O286   2.435       .  S
Zr284       O290   2.354   1_455  S
Zr284       O289   2.395       .  S
Zr284       O294   2.404       .  S
Zr284       O292   2.346       .  S
O285        H301   0.990       .  S
O286        H300   0.990       .  S
O286        H310   0.990   1_455  S
Zr287       O290   2.382   1_455  S
Zr287       O292   2.432       .  S
Zr287       O293   2.394       .  S
Zr288       O289   2.460       .  S
Zr288       O291   2.425       .  S
Zr288       O294   2.351       .  S
O289        H297   0.966   1_455  S
O292        H296   0.963       .  S
O293        H298   0.965       .  S
O311       Zr323   2.420       .  S
O311        C313   1.272       .  A
O312       Zr349   2.463       .  S
O312        C313   1.282       .  A
C313        C811   1.491       .  S
O314       Zr326   2.674       .  S
O314        C316   1.338       .  A
O315       Zr350   2.283       .  S
O315        C316   1.259       .  A
C316        C528   1.521       .  S
O317       Zr326   2.495       .  S
O317        C319   1.303       .  A
O318       Zr349   2.534       .  S
O318        C319   1.310       .  A
C319       C1414   1.535       .  S
O320       Zr323   2.409       .  S
O320        C322   1.281       .  A
O321       Zr350   2.442       .  S
O321        C322   1.289       .  A
C322        C558   1.476       .  S
Zr323       O324   2.432       .  S
Zr323       O325   2.441       .  S
Zr323       O329   2.372       .  S
Zr323       O330   2.357       .  S
Zr323       O353   2.379       .  S
Zr323       O355   2.372       .  S
O324        H367   0.990       .  S
O325        H366   0.989       .  S
O325        H370   0.990       .  S
Zr326      O1143   2.434       .  S
Zr326      O1144   2.432       .  S
Zr326       O330   2.351       .  S
Zr326       O329   2.388       .  S
Zr326       O354   2.451       .  S
Zr326       O356   2.284       .  S
O327      Zr1142   2.434       .  S
O327        H368   0.990       .  S
O327        H371   0.990   1_565  S
O328      Zr1142   2.432   1_545  S
O328        H361   0.990       .  S
O329       Zr349   2.441       .  S
O330       Zr350   2.374       .  S
O330        H357   0.966       .  S
O331       Zr343   2.513       .  S
O331        C333   1.301       .  A
O332       Zr350   2.377       .  S
O332        C333   1.279       .  A
C333        C721   1.494   1_556  S
O334       Zr346   2.390       .  S
O334        C336   1.276       .  A
O335       Zr349   2.470       .  S
O335        C336   1.295       .  A
C336        C551   1.478       .  S
O337       Zr346   2.394       .  S
O337        C339   1.265       .  A
O338       Zr350   2.530       .  S
O338        C339   1.289       .  A
C339        C518   1.489   1_556  S
O340       Zr343   2.411       .  S
O340        C342   1.274       .  A
O341       Zr349   2.534       .  S
O341        C342   1.301       .  A
C342        C608   1.524       .  S
Zr343       O344   2.432       .  S
Zr343       O345   2.436       .  S
Zr343       O351   2.364       .  S
Zr343       O352   2.402       .  S
Zr343       O355   2.412       .  S
Zr343       O353   2.347       .  S
O344        H364   0.989       .  S
O344        H369   0.990       .  S
O345        H365   0.990       .  S
Zr346       O347   2.433       .  S
Zr346       O348   2.433       .  S
Zr346       O352   2.349       .  S
Zr346       O351   2.353       .  S
Zr346       O356   2.370       .  S
Zr346       O354   2.337       .  S
O347        H363   0.990       .  S
O348        H362   0.988       .  S
O348        H372   0.988       .  S
Zr349       O352   2.406       .  S
Zr349       O354   2.417       .  S
Zr349       O355   2.446       .  S
Zr350       O351   2.385       .  S
Zr350       O353   2.359       .  S
Zr350       O356   2.336       .  S
O351        H359   0.964       .  S
O354        H358   0.962       .  S
O355        H360   0.965       .  S
O373      Zr1201   2.385       .  S
O373        C375   1.266       .  A
O374      Zr1227   2.561       .  S
O374        C375   1.302       .  A
C375        C531   1.528       .  S
O376       Zr388   2.351       .  S
O376        C378   1.271       .  A
O377       Zr412   2.588       .  S
O377        C378   1.321       .  A
C378        C588   1.505       .  S
O379      Zr1204   2.439       .  S
O379        C381   1.285       .  A
O380      Zr1227   2.388       .  S
O380        C381   1.283       .  A
C381        C791   1.449       .  S
O382       Zr385   2.402       .  S
O382        C384   1.272       .  A
O383       Zr412   2.483       .  S
O383        C384   1.292       .  A
C384        C498   1.509       .  S
Zr385      O1189   2.385   1_545  S
Zr385       O387   2.435       .  S
Zr385      O1202   2.436       .  S
Zr385       O392   2.346       .  S
Zr385       O415   2.363       .  S
Zr385       O417   2.385       .  S
Zr385      O1207   2.387       .  S
O386      Zr1201   2.436       .  S
O386        H429   0.990       .  S
O387        H428   0.988       .  S
O387        H432   0.988       .  S
Zr388      O1195   2.439       .  S
Zr388       O390   2.436       .  S
Zr388      O1205   2.435       .  S
Zr388       O392   2.388       .  S
Zr388       O416   2.337       .  S
Zr388       O418   2.395       .  S
Zr388      O1207   2.357       .  S
O389      Zr1204   2.435       .  S
O389        H430   0.990       .  S
O389        H433   0.990       .  S
O390        H423   0.990       .  S
O391      Zr1201   2.387       .  S
O391      Zr1204   2.357       .  S
O391      Zr1227   2.385       .  S
O392       Zr412   2.409       .  S
O392        H419   0.966       .  S
O393       Zr405   2.363       .  S
O393        C395   1.254       .  A
O394       Zr412   2.594       .  S
O394        C395   1.304       .  A
C395        C618   1.541   1_554  S
O396       Zr408   2.380       .  S
O396        C398   1.272       .  A
O397      Zr1227   2.534       .  S
O397       C1214   1.304       .  A
C398       O1213   1.304       .  A
C398        C508   1.487       .  S
O399       Zr408   2.462       .  S
O399        C401   1.291       .  A
O400       Zr412   2.389       .  S
O400        C401   1.285       .  A
C401        C778   1.476       .  S
O402       Zr405   2.537       .  S
O402        C404   1.303       .  A
O403      Zr1227   2.272       .  S
O403       C1220   1.266       .  A
C404       O1219   1.266       .  A
C404       C1354   1.457   1_545  S
Zr405       O406   2.413       .  S
Zr405       O407   2.426   1_554  S
Zr405       O413   2.406       .  S
Zr405       O414   2.313       .  S
Zr405       O417   2.261       .  S
Zr405       O415   2.424       .  S
O406        H426   0.986       .  S
O406        H431   0.986   1_554  S
O407        H427   0.990       .  S
Zr408       O409   2.434       .  S
Zr408       O410   2.435       .  S
Zr408       O414   2.392       .  S
Zr408       O413   2.341       .  S
Zr408       O418   2.336       .  S
Zr408       O416   2.377       .  S
O409        H425   0.990       .  S
O410        H424   0.989       .  S
O410        H434   0.990       .  S
Zr411      O1190   2.561   1_545  S
Zr411      O1196   2.388   1_545  S
Zr411      O1213   2.534       .  S
Zr411      O1219   2.272       .  S
Zr411       O414   2.358       .  S
Zr411       O416   2.387       .  S
Zr411       O417   2.386       .  S
Zr411      O1207   2.385       .  S
Zr412       O413   2.440       .  S
Zr412       O415   2.410       .  S
Zr412       O418   2.399       .  S
O413        H421   0.964       .  S
O416        H420   0.966       .  S
O417        H422   0.958       .  S
O435      Zr1263   2.353       .  S
O435        C437   1.258       .  A
O436      Zr1289   2.587       .  S
O436        C437   1.300       .  A
C437        C568   1.517       .  S
O438       Zr450   2.365       .  S
O438        C440   1.260       .  A
O439       Zr474   2.608       .  S
O439        C440   1.319       .  A
C440        C651   1.533       .  S
O441      Zr1266   2.422       .  S
O441        C443   1.281       .  A
O442      Zr1289   2.391       .  S
O442        C443   1.280       .  A
C443        C711   1.446       .  S
O444       Zr447   2.408       .  S
O444        C446   1.279       .  A
O445       Zr474   2.491       .  S
O445        C446   1.300       .  A
C446        C511   1.478   1_655  S
Zr447      O1251   2.353   1_545  S
Zr447       O448   2.436       .  S
Zr447       O449   2.439       .  S
Zr447       O453   2.394       .  S
Zr447       O454   2.351       .  S
Zr447       O477   2.321       .  S
Zr447       O479   2.408       .  S
O448       H1307   0.991       .  S
O449        H490   0.988   1_554  S
O449        H494   0.989       .  S
Zr450      O1257   2.422       .  S
Zr450       O451   2.445       .  S
Zr450       O452   2.438       .  S
Zr450       O454   2.374       .  S
Zr450       O453   2.335       .  S
Zr450       O478   2.339       .  S
Zr450       O480   2.389       .  S
O451        H492   0.989       .  S
O451        H495   0.989       .  S
O452        H485   0.990       .  S
O453       Zr473   2.370       .  S
O454       Zr474   2.378       .  S
O454        H481   0.960       .  S
O455       Zr467   2.384       .  S
O455        C457   1.263       .  A
O456       Zr474   2.564       .  S
O456        C457   1.299       .  A
C457        C581   1.519   1_554  S
O458       Zr470   2.383       .  S
O458        C460   1.278       .  A
O459       Zr473   2.539       .  S
O459        C460   1.310       .  A
C460        C501   1.518       .  S
O461       Zr470   2.484       .  S
O461        C463   1.296       .  A
O462       Zr474   2.340       .  S
O462        C463   1.273       .  A
C463        C701   1.472       .  S
O464       Zr467   2.567       .  S
O464        C466   1.302       .  A
O465       Zr473   2.313       .  S
O465        C466   1.245       .  A
C466       C1337   1.481       .  S
Zr467       O468   2.435       .  S
Zr467       O469   2.432   1_554  S
Zr467       O475   2.427       .  S
Zr467       O476   2.317       .  S
Zr467       O479   2.301       .  S
Zr467       O477   2.438       .  S
O468        H488   0.988       .  S
O468        H493   0.989   1_554  S
O469        H489   0.990       .  S
Zr470       O471   2.436       .  S
Zr470       O472   2.434       .  S
Zr470       O476   2.378       .  S
Zr470       O475   2.337       .  S
Zr470       O480   2.333       .  S
Zr470       O478   2.398       .  S
O471        H487   0.990       .  S
O472        H486   0.990       .  S
O472        H496   0.990       .  S
Zr473      O1252   2.587   1_545  S
Zr473      O1258   2.391   1_545  S
Zr473       O476   2.363       .  S
Zr473       O478   2.384       .  S
Zr473       O479   2.422       .  S
Zr474       O475   2.443       .  S
Zr474       O477   2.416       .  S
Zr474       O480   2.382       .  S
O475        H483   0.965       .  S
O478        H482   0.967       .  S
O479        H484   0.964       .  S
H491       O1264   0.991       .  S
C497        C498   1.418       .  A
C497        C502   1.409       .  A
C497        H504   1.078       .  S
C498        C499   1.406       .  A
C499        C500   1.405       .  A
C499       Br506   1.921       .  S
C500        C501   1.425       .  A
C500        H505   1.082       .  S
C501        C502   1.409       .  A
C502      Br1319   1.914       .  S
Br503      C1318   1.914       .  S
C507        C508   1.405       .  A
C507        C512   1.403       .  A
C507       H1330   1.084       .  S
C508        C509   1.413       .  A
C509        C510   1.404       .  A
C509       Br516   1.899       .  S
C510        C511   1.399       .  A
C510        H515   1.084       .  S
C511        C512   1.413       .  A
C512       Br513   1.916       .  S
H514       C1323   1.084       .  S
C517        C518   1.385       .  A
C517        C522   1.381       .  A
C517        H524   1.085       .  S
C518        C519   1.420   1_554  A
C519        C520   1.412       .  A
C519       Br526   1.901       .  S
C520        C521   1.401   1_556  A
C520       H1341   1.084       .  S
C521       C1282   1.481       .  S
C521        C522   1.428       .  A
C522       Br523   1.902       .  S
H525       C1336   1.084       .  S
C527        C528   1.406       .  A
C527        C532   1.429       .  A
C527        H534   1.083       .  S
C528        C529   1.435   1_556  A
C529        C530   1.396       .  A
C529       Br536   1.910       .  S
C530        C531   1.391       .  A
C530        H535   1.085       .  S
C531        C532   1.438   1_554  A
C532      Br1349   1.904       .  S
Br533      C1348   1.904   1_545  S
C537        C538   1.406       .  A
C537        C542   1.406       .  A
C537       H1360   1.077   1_554  S
C538       C1220   1.457       .  S
C538        C539   1.411       .  A
C539        C540   1.379       .  A
C539       Br546   1.904       .  S
C540        C541   1.391       .  A
C540        H545   1.081       .  S
C541        C542   1.412       .  A
C542       Br543   1.914       .  S
H544       C1353   1.077   1_546  S
C547        C548   1.403       .  A
C547        C552   1.402       .  A
C547        H554   1.078       .  S
C548        C549   1.427       .  A
C549        C550   1.402       .  A
C549       Br556   1.920       .  S
C550        C551   1.395       .  A
C550        H555   1.084       .  S
C551        C552   1.411       .  A
C552       Br553   1.915       .  S
C557        C558   1.408       .  A
C557        C562   1.394       .  A
C557        H564   1.083       .  S
C558        C559   1.407       .  A
C559        C560   1.399       .  A
C559       Br566   1.920       .  S
C560        C561   1.408       .  A
C560        H565   1.084       .  S
C561        C562   1.401       .  A
C562       Br563   1.906       .  S
C567        C568   1.420   1_556  A
C567        C572   1.434       .  A
C567        H574   1.081       .  S
C568        C569   1.414       .  A
C569        C570   1.395       .  A
C569       Br576   1.919       .  S
C570        C571   1.413   1_554  A
C570        H575   1.083       .  S
C571        C572   1.416       .  A
C572       Br573   1.914       .  S
C577        C578   1.407       .  A
C577        C582   1.411       .  A
C577        H584   1.080       .  S
C578        C579   1.428       .  A
C579        C580   1.427       .  A
C579       Br586   1.917       .  S
C580        C581   1.410       .  A
C580        H585   1.083   1_556  S
C581        C582   1.419       .  A
C582       Br583   1.923       .  S
C587        C588   1.417       .  A
C587        C592   1.424       .  A
C587        H594   1.083       .  S
C588        C589   1.413       .  A
C589        C590   1.411       .  A
C589       Br596   1.921       .  S
C590        C591   1.416       .  A
C590        H595   1.083       .  S
C591        C592   1.419       .  A
C592       Br593   1.916       .  S
C597        C598   1.409       .  A
C597        C602   1.402       .  A
C597        H604   1.082       .  S
C598       C1135   1.535   1_545  S
C598        C599   1.426       .  A
C599        C600   1.436       .  A
C599      Br1422   1.914   1_545  S
C600        C601   1.418       .  A
C600        H605   1.083       .  S
C601        C602   1.418       .  A
C602       Br603   1.924       .  S
Br606      C1415   1.914       .  S
C607        C608   1.418       .  A
C607        C612   1.413       .  A
C607        H614   1.083       .  S
C608        C609   1.413       .  A
C609        C610   1.414       .  A
C609       Br616   1.907       .  S
C610        C611   1.417       .  A
C610        H615   1.083       .  S
C611        C612   1.411       .  A
C612       Br613   1.917       .  S
C617        C618   1.413       .  A
C617        C622   1.437       .  A
C617        H624   1.083   1_556  S
C618        C619   1.421       .  A
C619        C620   1.421       .  A
C619       Br626   1.924       .  S
C620        C621   1.413       .  A
C620        H625   1.074       .  S
C621        C622   1.434       .  A
C622       Br623   1.919       .  S
C627        C628   1.412       .  A
C627        C632   1.395       .  A
C627        H634   1.081       .  S
C628        C629   1.404       .  A
C629        C630   1.388       .  A
C629       Br636   1.922       .  S
C630        C631   1.404       .  A
C630        H635   1.082       .  S
C631        C632   1.402       .  A
C632       Br633   1.919       .  S
C637        C638   1.395       .  A
C637        C642   1.386       .  A
C637        H644   1.085       .  S
C638        C639   1.409       .  A
C639        C640   1.408       .  A
C639       Br646   1.917       .  S
C640        C641   1.411       .  A
C640        H645   1.083       .  S
C641        C642   1.422       .  A
C642       Br643   1.917       .  S
C647        C648   1.387       .  A
C647        C652   1.408       .  A
C647        H654   1.084       .  S
C648        C649   1.429       .  A
C649        C650   1.418       .  A
C649       Br656   1.918       .  S
C650        C651   1.404       .  A
C650        H655   1.083       .  S
C651        C652   1.446       .  A
C652       Br653   1.919       .  S
C657        C662   1.455       .  A
C657       C1474   1.430       .  A
C657       H1480   1.082       .  S
C658        C659   1.425       .  A
C658       C1473   1.430       .  A
C659       C1476   1.413       .  A
C659       Br666   1.921       .  S
C660        C661   1.417       .  A
C660       C1475   1.413       .  A
C660        H665   1.081       .  S
C661        C662   1.432       .  A
C662       Br663   1.909       .  S
H664       C1473   1.082       .  S
C667        C668   1.407       .  A
C667        C672   1.410       .  A
C667        H674   1.081       .  S
C668        C669   1.403       .  A
C669        C670   1.410       .  A
C669       Br676   1.913       .  S
C670        C671   1.418       .  A
C670        H675   1.083       .  S
C671        C672   1.418       .  A
C672       Br673   1.923       .  S
C677        C678   1.417       .  A
C677        C682   1.425       .  A
C677        H684   1.083       .  S
C678        C679   1.418       .  A
C679        C680   1.383       .  A
C679       Br686   1.919       .  S
C680        C681   1.390       .  A
C680        H685   1.082       .  S
C681        C682   1.411       .  A
C682       Br683   1.915       .  S
C687        C688   1.407   1_455  A
C687        C692   1.409       .  A
C687        H694   1.083       .  S
C688        C689   1.403       .  A
C689        C690   1.389   1_655  A
C689       Br696   1.923       .  S
C690        C691   1.415       .  A
C690        H695   1.084       .  S
C691        C692   1.400       .  A
C692       Br693   1.896       .  S
C697        C698   1.402       .  A
C697        C702   1.381       .  A
C697        H704   1.083       .  S
C698        C699   1.418       .  A
C699        C700   1.400       .  A
C699       Br706   1.923       .  S
C700        C701   1.403       .  A
C700        H705   1.083       .  S
C701        C702   1.415       .  A
C702       Br703   1.930       .  S
C707        C708   1.382       .  A
C707        C712   1.369       .  A
C707        H714   1.086       .  S
C708        C709   1.408       .  A
C709        C710   1.401       .  A
C709       Br716   1.916       .  S
C710        C711   1.401       .  A
C710        H715   1.083       .  S
C711        C712   1.402       .  A
C712       Br713   1.890       .  S
C717        C718   1.404       .  A
C717        C722   1.397       .  A
C717        H724   1.084       .  S
C718        C719   1.398       .  A
C719        C720   1.397       .  A
C719       Br726   1.920       .  S
C720        C721   1.420       .  A
C720        H725   1.082       .  S
C721        C722   1.412       .  A
C722       Br723   1.916   1_554  S
C727        C728   1.411       .  A
C727        C732   1.379       .  A
C727        H734   1.083       .  S
C728        C729   1.400       .  A
C729        C730   1.387       .  A
C729       Br736   1.923       .  S
C730        C731   1.404       .  A
C730        H735   1.071       .  S
C731        C732   1.395       .  A
C732       Br733   1.922   1_655  S
C737        C738   1.411       .  A
C737        C742   1.385       .  A
C737        H744   1.083       .  S
C738        C739   1.411       .  A
C739        C740   1.374       .  A
C739       Br746   1.919       .  S
C740        C741   1.392       .  A
C740        H745   1.079       .  S
C741        C742   1.399       .  A
C742       Br743   1.922       .  S
C747        C748   1.404       .  A
C747        C752   1.393       .  A
C747        H754   1.083       .  S
C748        C749   1.428       .  A
C749        C750   1.393       .  A
C749       Br756   1.930       .  S
C750        C751   1.393   1_455  A
C750        H755   1.084   1_455  S
C751        C752   1.406   1_655  A
C752       Br753   1.920       .  S
C757        C758   1.427       .  A
C757        C762   1.405       .  A
C757        H764   1.083       .  S
C758        C759   1.406       .  A
C759        C760   1.412       .  A
C759       Br766   1.916       .  S
C760        C761   1.427       .  A
C760        H765   1.084       .  S
C761        C762   1.400       .  A
C762       Br763   1.914       .  S
C767        C768   1.419       .  A
C767        C772   1.401       .  A
C767        H774   1.082       .  S
C768        C769   1.415       .  A
C769        C770   1.409       .  A
C769       Br776   1.914       .  S
C770        C771   1.417       .  A
C770        H775   1.083       .  S
C771        C772   1.402       .  A
C772       Br773   1.893       .  S
C777        C778   1.404       .  A
C777        C782   1.393       .  A
C777        H784   1.084       .  S
C778        C779   1.407       .  A
C779        C780   1.399       .  A
C779       Br786   1.921       .  S
C780        C781   1.414       .  A
C780        H785   1.084       .  S
C781        C782   1.413       .  A
C782       Br783   1.917       .  S
C787        C788   1.400       .  A
C787        C792   1.397       .  A
C787        H794   1.083       .  S
C788        C789   1.427       .  A
C789        C790   1.386       .  A
C789       Br796   1.927       .  S
C790        C791   1.388       .  A
C790        H795   1.085       .  S
C791        C792   1.405       .  A
C792       Br793   1.915       .  S
C797        C798   1.414       .  A
C797        C802   1.384       .  A
C797        H804   1.078       .  S
C798        C799   1.393       .  A
C799        C800   1.403       .  A
C799       Br806   1.920       .  S
C800        C801   1.406       .  A
C800        H805   1.072       .  S
C801        C802   1.389       .  A
C802       Br803   1.921       .  S
C807        C808   1.410       .  A
C807        C812   1.405       .  A
C807        H814   1.084       .  S
C808        C809   1.400       .  A
C809        C810   1.397       .  A
C809       Br816   1.919       .  S
C810        C811   1.410       .  A
C810        H815   1.081       .  S
C811        C812   1.406       .  A
C812       Br813   1.911       .  S
O817       Zr829   2.487       .  S
O817        C819   1.285       .  A
O818       Zr855   2.347       .  S
O818        C819   1.255       .  A
C819       C1604   1.472       .  S
O820       Zr832   2.600       .  S
O820        C822   1.320       .  A
O821       Zr856   2.316       .  S
O821        C822   1.270       .  A
C822       C1577   1.507       .  S
O823       Zr832   2.492       .  S
O823        C825   1.299       .  A
O824       Zr855   2.387       .  S
O824        C825   1.276       .  A
C825       C1624   1.471       .  S
O826       Zr829   2.375       .  S
O826        C828   1.275       .  A
O827       Zr856   2.463       .  S
O827        C828   1.296       .  A
C828       C1564   1.482       .  S
Zr829       O830   2.436       .  S
Zr829       O831   2.454       .  S
Zr829       O835   2.359       .  S
Zr829       O836   2.355       .  S
Zr829       O859   2.451       .  S
Zr829       O861   2.349       .  S
O830        H873   0.990       .  S
O831        H872   0.989       .  S
O831        H876   0.986       .  S
Zr832       O833   2.436       .  S
Zr832       O834   2.433       .  S
Zr832       O836   2.359       .  S
Zr832       O835   2.400       .  S
Zr832       O860   2.434       .  S
Zr832       O862   2.363       .  S
O833        H874   0.990       .  S
O833        H877   0.990       .  S
O834        H867   0.990       .  S
O835       Zr855   2.397       .  S
O836       Zr856   2.413       .  S
O836        H863   0.965       .  S
O837       Zr849   2.492       .  S
O837        C839   1.296       .  A
O838       Zr856   2.381       .  S
O838        C839   1.281       .  A
C839       C1597   1.487       .  S
O840       Zr852   2.404       .  S
O840        C842   1.275       .  A
O841       Zr855   2.356       .  S
O841        C842   1.271       .  A
C842       C1554   1.458       .  S
O843       Zr852   2.385       .  S
O843        C845   1.249       .  A
O844       Zr856   2.545       .  S
O844        C845   1.297       .  A
C845       C1587   1.502       .  S
O846       Zr849   2.383       .  S
O846        C848   1.259       .  A
O847       Zr855   2.420       .  S
O847        C848   1.265       .  A
C848       C1617   1.452       .  S
Zr849       O850   2.437       .  S
Zr849       O851   2.435       .  S
Zr849       O857   2.305       .  S
Zr849       O858   2.408       .  S
Zr849       O861   2.390       .  S
Zr849       O859   2.399       .  S
O850        H870   0.989       .  S
O850        H875   0.990       .  S
O851        H871   0.990       .  S
Zr852       O853   2.427       .  S
Zr852       O854   2.427       .  S
Zr852       O858   2.371       .  S
Zr852       O857   2.391       .  S
Zr852       O862   2.416       .  S
Zr852       O860   2.380       .  S
O853        H869   0.990       .  S
O854        H868   0.989       .  S
O854        H878   0.989       .  S
Zr855       O858   2.399       .  S
Zr855       O860   2.364       .  S
Zr855       O861   2.297       .  S
Zr856       O857   2.409       .  S
Zr856       O859   2.442       .  S
Zr856       O862   2.393       .  S
O857        H865   0.962       .  S
O860        H864   0.963       .  S
O861        H866   0.968       .  S
O879       Zr891   2.440       .  S
O879        C881   1.281       .  A
O880       Zr917   2.372       .  S
O880        C881   1.261       .  A
C881       C1544   1.454       .  S
O882       Zr894   2.492       .  S
O882        C884   1.295       .  A
O883       Zr918   2.406       .  S
O883        C884   1.283       .  A
C884       C1497   1.482       .  S
O885       Zr894   2.449       .  S
O885        C887   1.290       .  A
O886       Zr917   2.413       .  S
O886        C887   1.281       .  A
C887       C1504   1.467       .  S
O888       Zr891   2.401       .  S
O888        C890   1.279       .  A
O889       Zr918   2.359       .  S
O889        C890   1.276       .  A
C890       C1557   1.432       .  S
Zr891       O892   2.435       .  S
Zr891       O893   2.438       .  S
Zr891       O897   2.369       .  S
Zr891       O898   2.368       .  S
Zr891       O921   2.392       .  S
Zr891       O923   2.351       .  S
O892        H935   0.990       .  S
O893        H934   0.990       .  S
O893        H938   0.991       .  S
Zr894       O895   2.436       .  S
Zr894       O896   2.434       .  S
Zr894       O898   2.374       .  S
Zr894       O897   2.369       .  S
Zr894       O922   2.386       .  S
Zr894       O924   2.351       .  S
O895        H936   0.990       .  S
O895        H939   0.990       .  S
O896        H929   0.990       .  S
O897       Zr917   2.381       .  S
O898       Zr918   2.384       .  S
O898        H925   0.965       .  S
O899       Zr911   2.456       .  S
O899        C901   1.291       .  A
O900       Zr918   2.406       .  S
O900        C901   1.282       .  A
C901       C1534   1.466       .  S
O902       Zr914   2.425       .  S
O902        C904   1.282       .  A
O903       Zr917   2.406       .  S
O903        C904   1.282       .  A
C904       C1567   1.457       .  S
O905       Zr914   2.441       .  S
O905        C907   1.290       .  A
O906       Zr918   2.383       .  S
O906        C907   1.274       .  A
C907       C1514   1.476       .  S
O908       Zr911   2.441       .  S
O908        C910   1.288       .  A
O909       Zr917   2.369       .  S
O909        C910   1.276       .  A
C910       C1524   1.433       .  S
Zr911       O912   2.437       .  S
Zr911       O913   2.437       .  S
Zr911       O919   2.376       .  S
Zr911       O920   2.391       .  S
Zr911       O923   2.352       .  S
Zr911       O921   2.361       .  S
O912        H932   0.990       .  S
O912        H937   0.990       .  S
O913        H933   0.990       .  S
Zr914       O915   2.439       .  S
Zr914       O916   2.436       .  S
Zr914       O920   2.371       .  S
Zr914       O919   2.344       .  S
Zr914       O924   2.373       .  S
Zr914       O922   2.382       .  S
O915        H931   0.990       .  S
O916        H930   0.990       .  S
O916        H940   0.990       .  S
Zr917       O920   2.373       .  S
Zr917       O922   2.376       .  S
Zr917       O923   2.396       .  S
Zr918       O919   2.373       .  S
Zr918       O921   2.371       .  S
Zr918       O924   2.363       .  S
O919        H927   0.964       .  S
O922        H926   0.965       .  S
O923        H928   0.965       .  S
O941       Zr953   2.566       .  S
O941        C943   1.305       .  A
O942       Zr979   2.330       .  S
O942        C943   1.256       .  A
C943       C1574   1.513       .  S
O944       Zr956   2.422   1_655  S
O944        C946   1.281       .  A
O945       Zr980   2.404   1_655  S
O945        C946   1.281       .  A
C946       C1447   1.460       .  S
O947       Zr956   2.371       .  S
O947        C949   1.273       .  A
O948       Zr979   2.533       .  S
O948        C949   1.306       .  A
C949       C1507   1.497       .  S
O950       Zr953   2.374       .  S
O950        C952   1.276       .  A
O951       Zr980   2.591       .  S
O951        C952   1.321       .  A
C952       C1464   1.505   1_455  S
Zr953       O954   2.435       .  S
Zr953       O955   2.434       .  S
Zr953       O959   2.331       .  S
Zr953       O960   2.425       .  S
Zr953       O983   2.435       .  S
Zr953       O985   2.326       .  S
O954        H997   0.990       .  S
O955        H996   0.990       .  S
O955       H1000   0.990       .  S
Zr956       O957   2.439   1_455  S
Zr956       O958   2.436   1_455  S
Zr956       O960   2.303       .  S
Zr956       O959   2.380       .  S
Zr956       O984   2.344       .  S
Zr956       O986   2.354       .  S
O957        H998   0.989       .  S
O957       H1001   0.990       .  S
O958        H991   0.990       .  S
O959       Zr979   2.373       .  S
O960       Zr980   2.416       .  S
O960        H987   0.963       .  S
O961       Zr973   2.645       .  S
O961        C963   1.327       .  A
O962       Zr980   2.403       .  S
O962        C963   1.281       .  A
C963       C1474   1.568       .  S
O964       Zr976   2.542       .  S
O964        C966   1.301       .  A
O965       Zr979   2.373       .  S
O965        C966   1.271       .  A
C966       C1487   1.510       .  S
O967       Zr976   2.366       .  S
O967        C969   1.254       .  A
O968       Zr980   2.622       .  S
O968        C969   1.312       .  A
C969       C1437   1.553       .  S
O970       Zr973   2.452       .  S
O970        C972   1.291       .  A
O971       Zr979   2.419       .  S
O971        C972   1.290       .  A
C972       C1454   1.475       .  S
Zr973       O974   2.436       .  S
Zr973       O975   2.434       .  S
Zr973       O981   2.302       .  S
Zr973       O982   2.459       .  S
Zr973       O985   2.401       .  S
Zr973       O983   2.348       .  S
O974        H994   0.990       .  S
O974        H999   0.990       .  S
O975        H995   0.990       .  S
Zr976       O977   2.422       .  S
Zr976       O978   2.434       .  S
Zr976       O982   2.359       .  S
Zr976       O981   2.459       .  S
Zr976       O986   2.420       .  S
Zr976       O984   2.294       .  S
O977        H993   0.990       .  S
O978        H992   0.989       .  S
O978       H1002   0.991       .  S
Zr979       O982   2.384       .  S
Zr979       O984   2.372       .  S
Zr979       O985   2.406       .  S
Zr980       O981   2.407       .  S
Zr980       O983   2.408       .  S
Zr980       O986   2.417       .  S
O981        H989   0.965       .  S
O984        H988   0.954       .  S
O985        H990   0.966       .  S
O1003     Zr1015   2.557       .  S
O1003      C1005   1.307       .  A
O1004     Zr1041   2.335       .  S
O1004      C1005   1.269       .  A
C1005      C1494   1.492       .  S
O1006     Zr1018   2.421       .  S
O1006      C1008   1.281       .  A
O1007     Zr1042   2.440       .  S
O1007      C1008   1.289       .  A
C1008      C1457   1.492       .  S
O1009     Zr1018   2.375       .  S
O1009      C1011   1.252       .  A
O1010     Zr1041   2.530       .  S
O1010      C1011   1.292       .  A
C1011      C1584   1.502       .  S
O1012     Zr1015   2.395       .  S
O1012      C1014   1.267       .  A
O1013     Zr1042   2.550       .  S
O1013      C1014   1.300       .  A
C1014      C1407   1.528       .  S
Zr1015     O1016   2.434       .  S
Zr1015     O1017   2.437       .  S
Zr1015     O1021   2.344       .  S
Zr1015     O1022   2.442       .  S
Zr1015     O1045   2.415       .  S
Zr1015     O1047   2.325       .  S
O1016      H1059   0.990       .  S
O1017      H1058   0.990       .  S
O1017      H1062   0.990       .  S
Zr1018     O1019   2.443       .  S
Zr1018     O1020   2.433       .  S
Zr1018     O1022   2.326       .  S
Zr1018     O1021   2.417       .  S
Zr1018     O1046   2.376       .  S
Zr1018     O1048   2.352       .  S
O1019      H1060   0.989       .  S
O1019      H1063   0.986       .  S
O1020      H1053   0.990       .  S
O1021     Zr1041   2.361       .  S
O1022     Zr1042   2.406       .  S
O1022      H1049   0.960       .  S
O1023     Zr1035   2.598       .  S
O1023      C1025   1.317       .  A
O1024     Zr1042   2.350       .  S
O1024      C1025   1.274       .  A
C1025      C1417   1.523       .  S
O1026     Zr1038   2.548       .  S
O1026      C1028   1.308       .  A
O1027     Zr1041   2.407       .  S
O1027      C1028   1.283       .  A
C1028      C1427   1.520       .  S
O1029     Zr1038   2.412       .  S
O1029      C1031   1.271       .  A
O1030     Zr1042   2.568       .  S
O1030      C1031   1.311       .  A
C1031      C1394   1.528       .  S
O1032     Zr1035   2.403       .  S
O1032      C1034   1.266       .  A
O1033     Zr1041   2.433       .  S
O1033      C1034   1.262       .  A
C1034      C1444   1.472       .  S
Zr1035     O1036   2.424       .  S
Zr1035     O1037   2.432       .  S
Zr1035     O1043   2.316       .  S
Zr1035     O1044   2.438       .  S
Zr1035     O1047   2.414       .  S
Zr1035     O1045   2.335       .  S
O1036      H1056   0.988       .  S
O1036      H1061   0.990       .  S
O1037      H1057   0.990       .  S
Zr1038     O1039   2.434       .  S
Zr1038     O1040   2.437       .  S
Zr1038     O1044   2.348       .  S
Zr1038     O1043   2.437       .  S
Zr1038     O1048   2.419       .  S
Zr1038     O1046   2.328       .  S
O1039      H1055   0.988       .  S
O1040      H1054   0.991       .  S
O1040      H1064   0.990       .  S
Zr1041     O1044   2.418       .  S
Zr1041     O1046   2.390       .  S
Zr1041     O1047   2.450       .  S
Zr1042     O1043   2.421       .  S
Zr1042     O1045   2.427       .  S
Zr1042     O1048   2.403       .  S
O1043      H1051   0.959       .  S
O1046      H1050   0.963       .  S
O1047      H1052   0.969       .  S
O1065     Zr1077   2.391       .  S
O1065      C1067   1.280   1_556  A
O1066     Zr1103   2.454   1_554  S
O1066      C1067   1.291       .  A
C1067      C1614   1.465       .  S
O1068     Zr1080   2.461       .  S
O1068      C1070   1.287       .  A
O1069     Zr1104   2.420       .  S
O1069      C1070   1.286       .  A
C1070      C1377   1.472       .  S
O1071     Zr1080   2.409       .  S
O1071      C1073   1.268   1_556  A
O1072     Zr1103   2.438   1_554  S
O1072      C1073   1.268       .  A
C1073      C1357   1.470       .  S
O1074     Zr1077   2.395       .  S
O1074      C1076   1.266       .  A
O1075     Zr1104   2.543       .  S
O1075      C1076   1.303       .  A
C1076      C1484   1.491       .  S
Zr1077     O1078   2.437       .  S
Zr1077     O1079   2.443       .  S
Zr1077     O1083   2.338       .  S
Zr1077     O1084   2.399       .  S
Zr1077     O1107   2.350       .  S
Zr1077     O1109   2.360       .  S
O1078      H1121   0.990       .  S
O1079      H1120   0.990       .  S
O1079      H1124   0.989       .  S
Zr1080     O1081   2.439       .  S
Zr1080     O1082   2.429       .  S
Zr1080     O1084   2.348       .  S
Zr1080     O1083   2.351       .  S
Zr1080     O1108   2.410       .  S
Zr1080     O1110   2.328       .  S
O1081      H1122   0.990       .  S
O1081      H1125   0.989       .  S
O1082      H1115   0.990       .  S
O1083     Zr1103   2.397       .  S
O1084     Zr1104   2.394       .  S
O1084      H1111   0.962       .  S
O1085     Zr1097   2.422   1_455  S
O1085      C1087   1.275       .  A
O1086     Zr1104   2.381       .  S
O1086      C1087   1.279       .  A
C1087      C1547   1.449   1_455  S
O1088     Zr1100   2.567   1_655  S
O1088      C1090   1.305       .  A
O1089     Zr1103   2.366       .  S
O1089      C1090   1.267   1_455  A
C1090      C1387   1.529       .  S
O1091     Zr1100   2.463       .  S
O1091      C1093   1.295       .  A
O1092     Zr1104   2.623       .  S
O1092      C1093   1.326       .  A
C1093      C1477   1.575       .  S
O1094     Zr1097   2.400       .  S
O1094      C1096   1.271       .  A
O1095     Zr1103   2.497   1_655  S
O1095      C1096   1.298       .  A
C1096      C1364   1.500       .  S
Zr1097     O1098   2.438       .  S
Zr1097     O1099   2.438       .  S
Zr1097     O1105   2.411   1_655  S
Zr1097     O1106   2.367       .  S
Zr1097     O1109   2.401   1_655  S
Zr1097     O1107   2.347   1_655  S
O1098      H1118   0.990       .  S
O1098      H1123   0.990       .  S
O1099      H1119   0.990       .  S
Zr1100     O1101   2.434   1_455  S
Zr1100     O1102   2.435       .  S
Zr1100     O1106   2.354   1_455  S
Zr1100     O1105   2.394       .  S
Zr1100     O1110   2.404       .  S
Zr1100     O1108   2.347       .  S
O1101      H1117   0.990       .  S
O1102      H1116   0.990       .  S
O1102      H1126   0.990   1_465  S
Zr1103     O1106   2.382   1_455  S
Zr1103     O1108   2.432       .  S
Zr1103     O1109   2.394       .  S
Zr1104     O1105   2.460       .  S
Zr1104     O1107   2.425       .  S
Zr1104     O1110   2.351       .  S
O1105      H1113   0.966   1_455  S
O1108      H1112   0.963       .  S
O1109      H1114   0.965       .  S
O1127     Zr1139   2.420       .  S
O1127      C1129   1.272       .  A
O1128     Zr1165   2.463       .  S
O1128      C1129   1.282       .  A
C1129      C1627   1.491       .  S
O1130     Zr1142   2.674       .  S
O1130      C1132   1.338       .  A
O1131     Zr1166   2.283       .  S
O1131      C1132   1.259       .  A
C1132      C1344   1.521       .  S
O1133     Zr1142   2.495       .  S
O1133      C1135   1.303       .  A
O1134     Zr1165   2.534       .  S
O1134      C1135   1.310       .  A
O1136     Zr1139   2.409       .  S
O1136      C1138   1.281       .  A
O1137     Zr1166   2.442       .  S
O1137      C1138   1.289       .  A
C1138      C1374   1.476       .  S
Zr1139     O1140   2.432       .  S
Zr1139     O1141   2.440       .  S
Zr1139     O1145   2.372       .  S
Zr1139     O1146   2.357       .  S
Zr1139     O1169   2.379       .  S
Zr1139     O1171   2.372       .  S
O1140      H1183   0.990       .  S
O1141      H1182   0.989       .  S
O1141      H1186   0.990       .  S
Zr1142     O1146   2.351       .  S
Zr1142     O1145   2.388       .  S
Zr1142     O1170   2.451       .  S
Zr1142     O1172   2.284       .  S
O1143      H1184   0.990       .  S
O1143      H1187   0.990       .  S
O1144      H1177   0.990       .  S
O1145     Zr1165   2.441       .  S
O1146     Zr1166   2.374       .  S
O1146      H1173   0.966       .  S
O1147     Zr1159   2.514       .  S
O1147      C1149   1.301       .  A
O1148     Zr1166   2.377       .  S
O1148      C1149   1.279       .  A
C1149      C1537   1.494   1_556  S
O1150     Zr1162   2.390       .  S
O1150      C1152   1.276       .  A
O1151     Zr1165   2.470       .  S
O1151      C1152   1.295       .  A
C1152      C1367   1.478       .  S
O1153     Zr1162   2.394       .  S
O1153      C1155   1.265       .  A
O1154     Zr1166   2.530       .  S
O1154      C1155   1.289       .  A
C1155      C1334   1.489   1_556  S
O1156     Zr1159   2.411       .  S
O1156      C1158   1.274       .  A
O1157     Zr1165   2.534       .  S
O1157      C1158   1.301       .  A
C1158      C1424   1.524       .  S
Zr1159     O1160   2.432       .  S
Zr1159     O1161   2.436       .  S
Zr1159     O1167   2.364       .  S
Zr1159     O1168   2.402       .  S
Zr1159     O1171   2.412       .  S
Zr1159     O1169   2.347       .  S
O1160      H1180   0.989       .  S
O1160      H1185   0.990       .  S
O1161      H1181   0.990       .  S
Zr1162     O1163   2.433       .  S
Zr1162     O1164   2.433       .  S
Zr1162     O1168   2.349       .  S
Zr1162     O1167   2.353       .  S
Zr1162     O1172   2.370       .  S
Zr1162     O1170   2.337       .  S
O1163      H1179   0.990       .  S
O1164      H1178   0.988       .  S
O1164      H1188   0.988       .  S
Zr1165     O1168   2.406       .  S
Zr1165     O1170   2.417       .  S
Zr1165     O1171   2.446       .  S
Zr1166     O1167   2.385       .  S
Zr1166     O1169   2.359       .  S
Zr1166     O1172   2.336       .  S
O1167      H1175   0.964       .  S
O1170      H1174   0.962       .  S
O1171      H1176   0.965       .  S
O1189      C1191   1.266       .  A
O1190      C1191   1.302       .  A
C1191      C1347   1.528       .  S
O1192     Zr1204   2.351       .  S
O1192      C1194   1.271       .  A
O1193     Zr1228   2.588       .  S
O1193      C1194   1.321       .  A
C1194      C1404   1.505       .  S
O1195      C1197   1.285   1_545  A
O1196      C1197   1.283       .  A
C1197      C1607   1.449       .  S
O1198     Zr1201   2.402       .  S
O1198      C1200   1.272       .  A
O1199     Zr1228   2.483       .  S
O1199      C1200   1.292       .  A
C1200      C1314   1.509       .  S
Zr1201     O1203   2.435       .  S
Zr1201     O1208   2.346       .  S
Zr1201     O1231   2.363       .  S
Zr1201     O1233   2.385       .  S
O1202      H1245   0.990       .  S
O1203      H1244   0.988       .  S
O1203      H1248   0.988       .  S
Zr1204     O1206   2.436       .  S
Zr1204     O1208   2.388       .  S
Zr1204     O1232   2.337       .  S
Zr1204     O1234   2.395       .  S
O1205      H1246   0.990       .  S
O1205      H1249   0.990       .  S
O1206      H1239   0.990       .  S
O1208     Zr1228   2.409       .  S
O1208      H1235   0.966       .  S
O1209     Zr1221   2.363       .  S
O1209      C1211   1.254       .  A
O1210     Zr1228   2.594       .  S
O1210      C1211   1.304       .  A
C1211      C1434   1.541   1_554  S
O1212     Zr1224   2.380       .  S
O1212      C1214   1.272       .  A
C1214      C1324   1.487       .  S
O1215     Zr1224   2.462       .  S
O1215      C1217   1.291       .  A
O1216     Zr1228   2.389       .  S
O1216      C1217   1.285       .  A
C1217      C1594   1.476       .  S
O1218     Zr1221   2.537       .  S
O1218      C1220   1.303       .  A
Zr1221     O1222   2.413       .  S
Zr1221     O1223   2.426   1_554  S
Zr1221     O1229   2.406       .  S
Zr1221     O1230   2.313       .  S
Zr1221     O1233   2.261       .  S
Zr1221     O1231   2.424       .  S
O1222      H1242   0.986       .  S
O1222      H1247   0.986   1_554  S
O1223      H1243   0.990       .  S
Zr1224     O1225   2.434       .  S
Zr1224     O1226   2.435       .  S
Zr1224     O1230   2.392       .  S
Zr1224     O1229   2.341       .  S
Zr1224     O1234   2.336       .  S
Zr1224     O1232   2.377       .  S
O1225      H1241   0.990       .  S
O1226      H1240   0.989       .  S
O1226      H1250   0.990       .  S
Zr1227     O1230   2.358       .  S
Zr1227     O1232   2.387       .  S
Zr1227     O1233   2.386       .  S
Zr1228     O1229   2.440       .  S
Zr1228     O1231   2.410       .  S
Zr1228     O1234   2.399       .  S
O1229      H1237   0.964       .  S
O1232      H1236   0.966       .  S
O1233      H1238   0.958       .  S
O1251      C1253   1.258       .  A
O1252      C1253   1.300       .  A
C1253      C1384   1.518       .  S
O1254     Zr1266   2.365       .  S
O1254      C1256   1.260       .  A
O1255     Zr1290   2.608       .  S
O1255      C1256   1.319       .  A
C1256      C1467   1.533       .  S
O1257      C1259   1.281   1_545  A
O1258      C1259   1.280       .  A
C1259      C1527   1.446       .  S
O1260     Zr1263   2.408       .  S
O1260      C1262   1.279       .  A
O1261     Zr1290   2.491       .  S
O1261      C1262   1.300       .  A
C1262      C1327   1.478   1_655  S
Zr1263     O1264   2.436       .  S
Zr1263     O1265   2.439       .  S
Zr1263     O1269   2.394       .  S
Zr1263     O1270   2.351       .  S
Zr1263     O1293   2.321       .  S
Zr1263     O1295   2.408       .  S
O1265      H1306   0.988   1_554  S
O1265      H1310   0.989       .  S
Zr1266     O1267   2.445       .  S
Zr1266     O1268   2.438       .  S
Zr1266     O1270   2.374       .  S
Zr1266     O1269   2.335       .  S
Zr1266     O1294   2.339       .  S
Zr1266     O1296   2.389       .  S
O1267      H1308   0.989       .  S
O1267      H1311   0.989       .  S
O1268      H1301   0.990       .  S
O1269     Zr1289   2.370       .  S
O1270     Zr1290   2.378       .  S
O1270      H1297   0.960       .  S
O1271     Zr1283   2.384       .  S
O1271      C1273   1.263       .  A
O1272     Zr1290   2.564       .  S
O1272      C1273   1.299       .  A
C1273      C1397   1.519   1_554  S
O1274     Zr1286   2.383       .  S
O1274      C1276   1.278       .  A
O1275     Zr1289   2.539       .  S
O1275      C1276   1.310       .  A
C1276      C1317   1.518       .  S
O1277     Zr1286   2.484       .  S
O1277      C1279   1.296       .  A
O1278     Zr1290   2.340       .  S
O1278      C1279   1.273       .  A
C1279      C1517   1.472       .  S
O1280     Zr1283   2.567       .  S
O1280      C1282   1.302       .  A
O1281     Zr1289   2.314       .  S
O1281      C1282   1.245       .  A
Zr1283     O1284   2.435       .  S
Zr1283     O1285   2.432   1_554  S
Zr1283     O1291   2.427       .  S
Zr1283     O1292   2.317       .  S
Zr1283     O1295   2.301       .  S
Zr1283     O1293   2.438       .  S
O1284      H1304   0.988       .  S
O1284      H1309   0.989   1_554  S
O1285      H1305   0.990       .  S
Zr1286     O1287   2.436       .  S
Zr1286     O1288   2.434       .  S
Zr1286     O1292   2.377       .  S
Zr1286     O1291   2.337       .  S
Zr1286     O1296   2.333       .  S
Zr1286     O1294   2.398       .  S
O1287      H1303   0.990       .  S
O1288      H1302   0.990       .  S
O1288      H1312   0.990       .  S
Zr1289     O1292   2.363       .  S
Zr1289     O1294   2.384       .  S
Zr1289     O1295   2.422       .  S
Zr1290     O1291   2.443       .  S
Zr1290     O1293   2.416       .  S
Zr1290     O1296   2.382       .  S
O1291      H1299   0.965       .  S
O1294      H1298   0.967       .  S
O1295      H1300   0.964       .  S
C1313      C1314   1.418       .  A
C1313      C1318   1.409       .  A
C1313      H1320   1.078       .  S
C1314      C1315   1.406       .  A
C1315      C1316   1.405       .  A
C1315     Br1322   1.921       .  S
C1316      C1317   1.425       .  A
C1316      H1321   1.082       .  S
C1317      C1318   1.409       .  A
C1323      C1324   1.405       .  A
C1323      C1328   1.403       .  A
C1324      C1325   1.413       .  A
C1325      C1326   1.404       .  A
C1325     Br1332   1.899       .  S
C1326      C1327   1.399       .  A
C1326      H1331   1.084       .  S
C1327      C1328   1.413       .  A
C1328     Br1329   1.916       .  S
C1333      C1334   1.385       .  A
C1333      C1338   1.382       .  A
C1333      H1340   1.085       .  S
C1334      C1335   1.420   1_554  A
C1335      C1336   1.412   1_565  A
C1335     Br1342   1.901   1_565  S
C1336      C1337   1.401   1_556  A
C1337      C1338   1.428   1_545  A
C1338     Br1339   1.903       .  S
C1343      C1344   1.406       .  A
C1343      C1348   1.429       .  A
C1343      H1350   1.083       .  S
C1344      C1345   1.435   1_556  A
C1345      C1346   1.396       .  A
C1345     Br1352   1.910       .  S
C1346      C1347   1.391       .  A
C1346      H1351   1.085       .  S
C1347      C1348   1.438   1_554  A
C1353      C1354   1.406       .  A
C1353      C1358   1.406       .  A
C1354      C1355   1.411       .  A
C1355      C1356   1.379       .  A
C1355     Br1362   1.904       .  S
C1356      C1357   1.391       .  A
C1356      H1361   1.081       .  S
C1357      C1358   1.412       .  A
C1358     Br1359   1.914       .  S
C1363      C1364   1.403       .  A
C1363      C1368   1.402       .  A
C1363      H1370   1.078       .  S
C1364      C1365   1.428       .  A
C1365      C1366   1.402       .  A
C1365     Br1372   1.920       .  S
C1366      C1367   1.395       .  A
C1366      H1371   1.084       .  S
C1367      C1368   1.411       .  A
C1368     Br1369   1.915       .  S
C1373      C1374   1.408       .  A
C1373      C1378   1.394       .  A
C1373      H1380   1.083       .  S
C1374      C1375   1.407       .  A
C1375      C1376   1.399       .  A
C1375     Br1382   1.920       .  S
C1376      C1377   1.408       .  A
C1376      H1381   1.084       .  S
C1377      C1378   1.401       .  A
C1378     Br1379   1.906       .  S
C1383      C1384   1.420   1_556  A
C1383      C1388   1.434       .  A
C1383      H1390   1.081       .  S
C1384      C1385   1.414       .  A
C1385      C1386   1.395       .  A
C1385     Br1392   1.919       .  S
C1386      C1387   1.413   1_554  A
C1386      H1391   1.083       .  S
C1387      C1388   1.416       .  A
C1388     Br1389   1.914       .  S
C1393      C1394   1.407       .  A
C1393      C1398   1.411       .  A
C1393      H1400   1.080       .  S
C1394      C1395   1.428       .  A
C1395      C1396   1.427       .  A
C1395     Br1402   1.917       .  S
C1396      C1397   1.410       .  A
C1396      H1401   1.083   1_556  S
C1397      C1398   1.419       .  A
C1398     Br1399   1.923       .  S
C1403      C1404   1.417       .  A
C1403      C1408   1.424       .  A
C1403      H1410   1.083       .  S
C1404      C1405   1.413       .  A
C1405      C1406   1.411       .  A
C1405     Br1412   1.921       .  S
C1406      C1407   1.416       .  A
C1406      H1411   1.083       .  S
C1407      C1408   1.419       .  A
C1408     Br1409   1.916       .  S
C1413      C1414   1.409       .  A
C1413      C1418   1.402       .  A
C1413      H1420   1.082       .  S
C1414      C1415   1.426       .  A
C1415      C1416   1.436       .  A
C1416      C1417   1.418       .  A
C1416      H1421   1.083       .  S
C1417      C1418   1.418       .  A
C1418     Br1419   1.924       .  S
C1423      C1424   1.418       .  A
C1423      C1428   1.413       .  A
C1423      H1430   1.083       .  S
C1424      C1425   1.413       .  A
C1425      C1426   1.414       .  A
C1425     Br1432   1.907       .  S
C1426      C1427   1.417       .  A
C1426      H1431   1.083       .  S
C1427      C1428   1.411       .  A
C1428     Br1429   1.917       .  S
C1433      C1434   1.413       .  A
C1433      C1438   1.437       .  A
C1433      H1440   1.083   1_556  S
C1434      C1435   1.421       .  A
C1435      C1436   1.421       .  A
C1435     Br1442   1.924       .  S
C1436      C1437   1.413       .  A
C1436      H1441   1.074       .  S
C1437      C1438   1.434       .  A
C1438     Br1439   1.919       .  S
C1443      C1444   1.403       .  A
C1443      C1448   1.393       .  A
C1443      H1450   1.080       .  S
C1444      C1445   1.410       .  A
C1445      C1446   1.387       .  A
C1445     Br1452   1.924       .  S
C1446      C1447   1.404       .  A
C1446      H1451   1.081       .  S
C1447      C1448   1.402       .  A
C1448     Br1449   1.919       .  S
C1453      C1454   1.395       .  A
C1453      C1458   1.386       .  A
C1453      H1460   1.085       .  S
C1454      C1455   1.409       .  A
C1455      C1456   1.408       .  A
C1455     Br1462   1.917       .  S
C1456      C1457   1.411       .  A
C1456      H1461   1.083       .  S
C1457      C1458   1.422       .  A
C1458     Br1459   1.917       .  S
C1463      C1464   1.387       .  A
C1463      C1468   1.408       .  A
C1463      H1470   1.084       .  S
C1464      C1465   1.429       .  A
C1465      C1466   1.418       .  A
C1465     Br1472   1.918       .  S
C1466      C1467   1.404       .  A
C1466      H1471   1.083       .  S
C1467      C1468   1.446       .  A
C1468     Br1469   1.919       .  S
C1473      C1478   1.455   1_545  A
C1474      C1475   1.425       .  A
C1475     Br1482   1.921       .  S
C1476      C1477   1.417   1_545  A
C1476      H1481   1.081       .  S
C1477      C1478   1.432       .  A
C1478     Br1479   1.909       .  S
C1483      C1484   1.407       .  A
C1483      C1488   1.410       .  A
C1483      H1490   1.081       .  S
C1484      C1485   1.403       .  A
C1485      C1486   1.410       .  A
C1485     Br1492   1.913       .  S
C1486      C1487   1.418       .  A
C1486      H1491   1.083       .  S
C1487      C1488   1.418       .  A
C1488     Br1489   1.923       .  S
C1493      C1494   1.417       .  A
C1493      C1498   1.425       .  A
C1493      H1500   1.083       .  S
C1494      C1495   1.417       .  A
C1495      C1496   1.383       .  A
C1495     Br1502   1.919       .  S
C1496      C1497   1.390       .  A
C1496      H1501   1.082       .  S
C1497      C1498   1.411       .  A
C1498     Br1499   1.915       .  S
C1503      C1504   1.407   1_455  A
C1503      C1508   1.409       .  A
C1503      H1510   1.083       .  S
C1504      C1505   1.403       .  A
C1505      C1506   1.389   1_655  A
C1505     Br1512   1.923       .  S
C1506      C1507   1.415       .  A
C1506      H1511   1.084       .  S
C1507      C1508   1.400       .  A
C1508     Br1509   1.896       .  S
C1513      C1514   1.402       .  A
C1513      C1518   1.381       .  A
C1513      H1520   1.083       .  S
C1514      C1515   1.418       .  A
C1515      C1516   1.400       .  A
C1515     Br1522   1.923       .  S
C1516      C1517   1.403       .  A
C1516      H1521   1.083       .  S
C1517      C1518   1.415       .  A
C1518     Br1519   1.930       .  S
C1523      C1524   1.382       .  A
C1523      C1528   1.369       .  A
C1523      H1530   1.086       .  S
C1524      C1525   1.408       .  A
C1525      C1526   1.401       .  A
C1525     Br1532   1.916       .  S
C1526      C1527   1.401       .  A
C1526      H1531   1.083       .  S
C1527      C1528   1.402       .  A
C1528     Br1529   1.890       .  S
C1533      C1534   1.404       .  A
C1533      C1538   1.397       .  A
C1533      H1540   1.084       .  S
C1534      C1535   1.398       .  A
C1535      C1536   1.397       .  A
C1535     Br1542   1.920       .  S
C1536      C1537   1.420       .  A
C1536      H1541   1.082       .  S
C1537      C1538   1.412       .  A
C1538     Br1539   1.916   1_554  S
C1543      C1544   1.411       .  A
C1543      C1548   1.379       .  A
C1543      H1550   1.083       .  S
C1544      C1545   1.400       .  A
C1545      C1546   1.387       .  A
C1545     Br1552   1.923       .  S
C1546      C1547   1.404       .  A
C1546      H1551   1.071       .  S
C1547      C1548   1.395       .  A
C1548     Br1549   1.922   1_655  S
C1553      C1554   1.411       .  A
C1553      C1558   1.385       .  A
C1553      H1560   1.083       .  S
C1554      C1555   1.411       .  A
C1555      C1556   1.374       .  A
C1555     Br1562   1.919       .  S
C1556      C1557   1.392       .  A
C1556      H1561   1.079       .  S
C1557      C1558   1.399       .  A
C1558     Br1559   1.922       .  S
C1563      C1564   1.404       .  A
C1563      C1568   1.393       .  A
C1563      H1570   1.083       .  S
C1564      C1565   1.428       .  A
C1565      C1566   1.393       .  A
C1565     Br1572   1.930       .  S
C1566      C1567   1.393   1_455  A
C1566      H1571   1.084   1_455  S
C1567      C1568   1.406   1_655  A
C1568     Br1569   1.920       .  S
C1573      C1574   1.427       .  A
C1573      C1578   1.405       .  A
C1573      H1580   1.083       .  S
C1574      C1575   1.406       .  A
C1575      C1576   1.412       .  A
C1575     Br1582   1.916       .  S
C1576      C1577   1.427       .  A
C1576      H1581   1.084       .  S
C1577      C1578   1.400       .  A
C1578     Br1579   1.914       .  S
C1583      C1584   1.419       .  A
C1583      C1588   1.401       .  A
C1583      H1590   1.082       .  S
C1584      C1585   1.415       .  A
C1585      C1586   1.409       .  A
C1585     Br1592   1.914       .  S
C1586      C1587   1.417       .  A
C1586      H1591   1.083       .  S
C1587      C1588   1.402       .  A
C1588     Br1589   1.893       .  S
C1593      C1594   1.404       .  A
C1593      C1598   1.393       .  A
C1593      H1600   1.084       .  S
C1594      C1595   1.407       .  A
C1595      C1596   1.399       .  A
C1595     Br1602   1.921       .  S
C1596      C1597   1.414       .  A
C1596      H1601   1.084       .  S
C1597      C1598   1.413       .  A
C1598     Br1599   1.917       .  S
C1603      C1604   1.400       .  A
C1603      C1608   1.397       .  A
C1603      H1610   1.083       .  S
C1604      C1605   1.427       .  A
C1605      C1606   1.386       .  A
C1605     Br1612   1.927       .  S
C1606      C1607   1.388       .  A
C1606      H1611   1.085       .  S
C1607      C1608   1.405       .  A
C1608     Br1609   1.915       .  S
C1613      C1614   1.414       .  A
C1613      C1618   1.384       .  A
C1613      H1620   1.078       .  S
C1614      C1615   1.393       .  A
C1615      C1616   1.403       .  A
C1615     Br1622   1.920       .  S
C1616      C1617   1.406       .  A
C1616      H1621   1.072       .  S
C1617      C1618   1.389       .  A
C1618     Br1619   1.921       .  S
C1623      C1624   1.410       .  A
C1623      C1628   1.405       .  A
C1623      H1630   1.084       .  S
C1624      C1625   1.400       .  A
C1625      C1626   1.397       .  A
C1625     Br1632   1.919       .  S
C1626      C1627   1.410       .  A
C1626      H1631   1.081       .  S
C1627      C1628   1.406       .  A
C1628     Br1629   1.911       .  S
