geometry optimzed in LAMMPS
_audit_creation_date              2020-12-01 
_audit_creation_method            'lammps2cif' 
_symmetry_space_group_name_H-M    'P1' 
_symmetry_Int_Tables_number       1 
_symmetry_cell_setting            triclinic 
loop_ 
_symmetry_equiv_pos_as_xyz 
  x,y,z 
_cell_length_a                    98.78336709 
_cell_length_b                    39.0187820742416 
_cell_length_c                    49.054896770572526 
_cell_angle_alpha                 90.0040499964869 
_cell_angle_beta                  89.95821045397696 
_cell_angle_gamma                 89.99845196714314 
loop_ 
_atom_site_label 
_atom_site_type_symbol 
_atom_site_fract_x 
_atom_site_fract_y 
_atom_site_fract_z 
_atom_site_charge 
Fe1        Fe  0.79591907  0.77841711  0.72012304     1.65800
Fe2        Fe  0.79076192  0.86168287  0.70160552     1.73200
Fe3        Fe  0.76611525  0.80151900  0.68930812     1.54400
O4          O  0.77389585  0.75900416  0.66885714    -0.80200
O5          O  0.77314435  0.88002000  0.71744702    -0.78500
O6          O  0.79450264  0.74776568  0.68604565    -0.82700
O7          O  0.78024131  0.75164960  0.73892829    -0.77500
O8          O  0.76803843  0.83042174  0.65407042    -0.79300
O9          O  0.79838914  0.86045138  0.74109818    -0.82100
C10         C  0.76742146  0.75267451  0.73872727     0.98700
C11         C  0.78487360  0.74181626  0.66953646     1.06200
O12         O  0.78425218  0.81385545  0.70341620    -1.11000
O13         O  0.80935390  0.84908756  0.68554085    -0.73500
O14         O  0.81399487  0.79914419  0.70534469    -0.77000
O15         O  0.76085928  0.77169312  0.72257582    -0.77600
C16         C  0.81757259  0.82568529  0.69219081     0.97600
O17         O  0.79788339  0.80610621  0.75544559    -0.75600
O18         O  0.78353785  0.87064768  0.66245086    -0.80800
C19         C  0.76087836  0.87083159  0.71778425     1.00200
C20         C  0.77444360  0.85737811  0.64752843     1.06200
O21         O  0.75661841  0.84250012  0.70837472    -0.76400
C22         C  0.79955087  0.83785772  0.75959459     1.04500
Fe23       Fe  0.94470220  0.95582984  0.71914550     1.65800
Fe24       Fe  0.95010355  0.87313293  0.70004490     1.73200
Fe25       Fe  0.97450076  0.93378558  0.68807578     1.54400
O26         O  0.96686421  0.97772801  0.66958667    -0.80200
O27         O  0.96754523  0.85522619  0.71692149    -0.78500
O28         O  0.94575817  0.98646184  0.68506524    -0.82700
O29         O  0.96047445  0.98292183  0.73766877    -0.77500
O30         O  0.97206421  0.90766041  0.65162777    -0.79300
O31         O  0.94190618  0.87402589  0.73926730    -0.82100
C32         C  0.97328232  0.98044635  0.73846695     0.98700
C33         C  0.95563837  0.99379491  0.66954225     1.06200
O34         O  0.95644592  0.92092769  0.70215286    -1.11000
O35         O  0.93174321  0.88576094  0.68306847    -0.73500
O36         O  0.92665500  0.93421887  0.70471571    -0.77000
O37         O  0.97982472  0.96080576  0.72272403    -0.77600
C38         C  0.92328802  0.90812098  0.69074196     0.97600
O39         O  0.94307885  0.92796695  0.75437074    -0.75600
O40         O  0.95788221  0.86475246  0.66108623    -0.80800
C41         C  0.97985734  0.86390751  0.71586438     1.00200
C42         C  0.96621555  0.87979756  0.64537414     1.06200
O43         O  0.98405667  0.89150028  0.70507441    -0.76400
C44         C  0.94104328  0.89629077  0.75812773     1.04500
Fe45       Fe  0.79768495  0.95587633  0.01464502     1.65800
Fe46       Fe  0.79194324  0.87280445  0.03216618     1.73200
Fe47       Fe  0.76759766  0.93333295  0.04396585     1.54400
O48         O  0.77458851  0.97872200  0.06136095    -0.80200
O49         O  0.77477737  0.85544594  0.01382354    -0.78500
O50         O  0.79615996  0.98630373  0.04871750    -0.82700
O51         O  0.78193083  0.98263674  0.99544762    -0.77500
O52         O  0.77036019  0.90872638  0.08095900    -0.79300
O53         O  0.80070869  0.87437495  0.99355551    -0.82100
C54         C  0.76918099  0.97887187  0.99329207     0.98700
C55         C  0.78580544  0.99470945  0.06247648     1.06200
O56         O  0.78575707  0.92068182  0.03053120    -1.11000
O57         O  0.81003466  0.88488010  0.05053606    -0.73500
O58         O  0.81550153  0.93422134  0.03049417    -0.77000
O59         O  0.76253100  0.95847169  0.00828018    -0.77600
C60         C  0.81857301  0.90782659  0.04446482     0.97600
O61         O  0.79988642  0.92864261  0.97922533    -0.75600
O62         O  0.78349694  0.86398962  0.07048416    -0.80800
C63         C  0.76241870  0.86301564  0.01645527     1.00200
C64         C  0.77565552  0.87994603  0.08667329     1.06200
O65         O  0.75822590  0.88987858  0.02834096    -0.76400
C66         C  0.80182227  0.89702069  0.97507580     1.04500
Fe67       Fe  0.94477651  0.77836260  0.01349429     1.65800
Fe68       Fe  0.95107562  0.86105845  0.03205821     1.73200
Fe69       Fe  0.97455038  0.79876281  0.04529627     1.54400
O70         O  0.96683934  0.75389310  0.06223069    -0.80200
O71         O  0.96872924  0.87732852  0.01487767    -0.78500
O72         O  0.94572945  0.74631936  0.04682207    -0.82700
O73         O  0.96058698  0.75167765  0.99443625    -0.77500
O74         O  0.97153514  0.82370733  0.08206386    -0.79300
O75         O  0.94287724  0.86070859  0.99297094    -0.82100
C76         C  0.97343786  0.75387088  0.99399418     0.98700
C77         C  0.95567342  0.73766435  0.06166301     1.06200
O78         O  0.95676610  0.81266033  0.03056825    -1.11000
O79         O  0.93254606  0.84992222  0.04915806    -0.73500
O80         O  0.92700284  0.80041324  0.02930879    -0.77000
O81         O  0.97999317  0.77294915  0.01017961    -0.77600
C82         C  0.92395896  0.82706899  0.04304104     0.97600
O83         O  0.94302582  0.80657954  0.97837754    -0.75600
O84         O  0.95909911  0.86936807  0.07084138    -0.80800
C85         C  0.98095212  0.86876983  0.01817405     1.00200
C86         C  0.96665420  0.85306996  0.08734458     1.06200
O87         O  0.98463516  0.84150377  0.03016530    -0.76400
C88         C  0.94158294  0.83838276  0.97432337     1.04500
Fe89       Fe  0.04844909  0.52910764  0.76382042     1.65800
Fe90       Fe  0.04236826  0.61211171  0.78205262     1.73200
Fe91       Fe  0.01878106  0.55015754  0.79613613     1.54400
O92         O  0.01329859  0.52255441  0.76186582    -0.80200
O93         O  0.03492274  0.62082438  0.82125970    -0.78500
O94         O  0.03268147  0.50247572  0.74508942    -0.82700
O95         O  0.04747233  0.49746332  0.79739175    -0.77500
O96         O  0.00863684  0.59188617  0.77959535    -0.79300
O97         O  0.06101040  0.60095132  0.79829510    -0.82100
C98         C  0.03781175  0.48992210  0.81337259     0.98700
C99         C  0.01984032  0.50387093  0.74535241     1.06200
O100        O  0.03655243  0.56373579  0.78091638    -1.11000
O101        O  0.05016981  0.61137655  0.74263155    -0.73500
O102        O  0.05028750  0.55702220  0.72852658    -0.77000
O103        O  0.02671293  0.50642147  0.81435588    -0.77600
C104        C  0.05162996  0.58881587  0.72421376     0.97600
O105        O  0.06624476  0.55082223  0.77912009    -0.75600
O106        O  0.02459882  0.62846063  0.76561518    -0.80800
C107        C  0.02715215  0.60527766  0.83781828     1.00200
C108        C  0.01239043  0.61929621  0.76790254     1.06200
O109        O  0.02164292  0.57669950  0.83233725    -0.76400
C110        C  0.06944453  0.57774428  0.79224815     1.04500
Fe111      Fe  0.19528920  0.70869311  0.76217229     1.65800
Fe112      Fe  0.20080548  0.62452875  0.77837117     1.73200
Fe113      Fe  0.22541676  0.68442942  0.79144791     1.54400
O114        O  0.23041950  0.71395252  0.75794716    -0.80200
O115        O  0.20795758  0.61517033  0.81758062    -0.78500
O116        O  0.21089451  0.73394830  0.74188524    -0.82700
O117        O  0.19767402  0.73962958  0.79576217    -0.77500
O118        O  0.23485986  0.64354283  0.77232039    -0.79300
O119        O  0.18220202  0.63627150  0.79451484    -0.82100
C120        C  0.20752798  0.74505833  0.81174722     0.98700
C121        C  0.22372684  0.73259718  0.74170392     1.06200
O122        O  0.20715012  0.67259205  0.77755408    -1.11000
O123        O  0.19329816  0.62664085  0.73890119    -0.73500
O124        O  0.19204419  0.68172780  0.72686289    -0.77000
O125        O  0.21827173  0.72714652  0.81207492    -0.77600
C126        C  0.19118133  0.65009043  0.72149497     0.97600
O127        O  0.17759027  0.68883930  0.77936272    -0.75600
O128        O  0.21838110  0.60660726  0.76207607    -0.80800
C129        C  0.21673762  0.62884073  0.83307039     1.00200
C130        C  0.23063737  0.61572599  0.76205042     1.06200
O131        O  0.22320536  0.65580542  0.82676061    -0.76400
C132        C  0.17415801  0.66108083  0.79103567     1.04500
Fe133      Fe  0.04756588  0.70623086  0.46891299     1.65800
Fe134      Fe  0.04236184  0.62337721  0.44960542     1.73200
Fe135      Fe  0.01784256  0.68373699  0.43766886     1.54400
O136        O  0.01248737  0.71116338  0.47203119    -0.80200
O137        O  0.03459694  0.61464863  0.41070793    -0.78500
O138        O  0.03177510  0.73203014  0.48830509    -0.82700
O139        O  0.04616231  0.73777860  0.43543828    -0.77500
O140        O  0.00839480  0.64174569  0.45538315    -0.79300
O141        O  0.06069753  0.63644327  0.43259616    -0.82100
C142        C  0.03640666  0.74453187  0.41948075     0.98700
C143        C  0.01896653  0.72980177  0.48858126     1.06200
O144        O  0.03593186  0.67117473  0.45173198    -1.11000
O145        O  0.05049124  0.62407705  0.48879055    -0.73500
O146        O  0.04951451  0.67798356  0.50385282    -0.77000
O147        O  0.02540390  0.72752068  0.41875219    -0.77600
C148        C  0.05134650  0.64627445  0.50766117     0.97600
O149        O  0.06557314  0.68567407  0.45342609    -0.75600
O150        O  0.02495973  0.60534878  0.46663777    -0.80800
C151        C  0.02608409  0.62930468  0.39518745     1.00200
C152        C  0.01266053  0.61423826  0.46620084     1.06200
O153        O  0.02017501  0.65706749  0.40146121    -0.76400
C154        C  0.06899649  0.65959975  0.43946635     1.04500
Fe155      Fe  0.19518812  0.52792133  0.46850141     1.65800
Fe156      Fe  0.20094508  0.61032596  0.44922227     1.73200
Fe157      Fe  0.22537566  0.54947602  0.43895585     1.54400
O158        O  0.23022928  0.52344789  0.47434593    -0.80200
O159        O  0.20941789  0.61841453  0.41090135    -0.78500
O160        O  0.21069037  0.50078372  0.48775935    -0.82700
O161        O  0.19657303  0.49704767  0.43459137    -0.77500
O162        O  0.23474752  0.59238683  0.45542772    -0.79300
O163        O  0.18288484  0.59748951  0.43104834    -0.82100
C164        C  0.20674550  0.48921357  0.42001324     0.98700
C165        C  0.22345642  0.50363720  0.48956143     1.06200
O166        O  0.20718667  0.56256462  0.45196752    -1.11000
O167        O  0.19206993  0.60973195  0.48770480    -0.73500
O168        O  0.19325646  0.55610734  0.50350181    -0.77000
O169        O  0.21801084  0.50503058  0.42085645    -0.77600
C170        C  0.19106400  0.58780883  0.50674875     0.97600
O171        O  0.17736899  0.54970297  0.45320393    -0.75600
O172        O  0.21812259  0.62836373  0.46720169    -0.80800
C173        C  0.21775981  0.60281427  0.39557447     1.00200
C174        C  0.23047606  0.62005479  0.46599556     1.06200
O175        O  0.22325919  0.57458548  0.40204573    -0.76400
C176        C  0.17425773  0.57552149  0.43868443     1.04500
Fe177      Fe  0.69280150  0.20639236  0.76505403     1.65800
Fe178      Fe  0.69957557  0.12201482  0.77883666     1.73200
Fe179      Fe  0.72353278  0.18342295  0.79249768     1.54400
O180        O  0.72767977  0.21571447  0.76010011    -0.80200
O181        O  0.70721936  0.11139456  0.81753284    -0.78500
O182        O  0.70778696  0.23382252  0.74456155    -0.82700
O183        O  0.69525635  0.23613864  0.79941784    -0.77500
O184        O  0.73325622  0.14499074  0.77109597    -0.79300
O185        O  0.68095893  0.13156317  0.79591653    -0.82100
C186        C  0.70505802  0.24111620  0.81566208     0.98700
C187        C  0.72062904  0.23406047  0.74426369     1.06200
O188        O  0.70528197  0.17063665  0.77901398    -1.11000
O189        O  0.69160981  0.12513891  0.73973031    -0.73500
O190        O  0.68938051  0.18051628  0.72918063    -0.77000
O191        O  0.71595787  0.22380625  0.81533041    -0.77600
C192        C  0.68887136  0.14901928  0.72304666     0.97600
O193        O  0.67558603  0.18443917  0.78251453    -0.75600
O194        O  0.71728674  0.10632206  0.76149589    -0.80800
C195        C  0.71625489  0.12457907  0.83269959     1.00200
C196        C  0.72936094  0.11695901  0.76071239     1.06200
O197        O  0.72241620  0.15211308  0.82666260    -0.76400
C198        C  0.67259003  0.15588610  0.79342078     1.04500
Fe199      Fe  0.54740508  0.02533863  0.76404649     1.65800
Fe200      Fe  0.54198002  0.10897381  0.78091757     1.73200
Fe201      Fe  0.51728673  0.04934791  0.79324658     1.54400
O202        O  0.51228805  0.02145694  0.75891393    -0.80200
O203        O  0.53371802  0.11902085  0.81920272    -0.78500
O204        O  0.53177881  0.99962011  0.74418113    -0.82700
O205        O  0.54527144  0.99500378  0.79794204    -0.77500
O206        O  0.50809146  0.09134758  0.77528901    -0.79300
O207        O  0.56004901  0.09644348  0.79917324    -0.82100
C208        C  0.53527232  0.98899693  0.81341939     0.98700
C209        C  0.51897408  0.00200558  0.74325014     1.06200
O210        O  0.53555711  0.06118691  0.77959869    -1.11000
O211        O  0.55069080  0.10679998  0.74238265    -0.73500
O212        O  0.55043501  0.05228447  0.72865518    -0.77000
O213        O  0.52428001  0.00587565  0.81292875    -0.77600
C214        C  0.55225484  0.08390335  0.72427481     0.97600
O215        O  0.56505420  0.04568937  0.78084971    -0.75600
O216        O  0.52481684  0.12647495  0.76258273    -0.80800
C217        C  0.52532862  0.10442244  0.83504848     1.00200
C218        C  0.51245391  0.11830195  0.76383248     1.06200
O219        O  0.51957297  0.07629494  0.82928277    -0.76400
C220        C  0.56827862  0.07235953  0.79421969     1.04500
Fe221      Fe  0.69297575  0.02737455  0.46933158     1.65800
Fe222      Fe  0.69782061  0.10973447  0.44930088     1.73200
Fe223      Fe  0.72261066  0.05031440  0.43815445     1.54400
O224        O  0.72808776  0.02504561  0.47341213    -0.80200
O225        O  0.70627573  0.11862006  0.41091658    -0.78500
O226        O  0.70891428  0.00191280  0.48845461    -0.82700
O227        O  0.69439166  0.99605345  0.43591572    -0.77500
O228        O  0.73165662  0.09395813  0.45420084    -0.79300
O229        O  0.68007161  0.09520589  0.43084290    -0.82100
C230        C  0.70435102  0.98882554  0.42064943     0.98700
C231        C  0.72167808  0.00541218  0.48936770     1.06200
O232        O  0.70449110  0.06241581  0.45202014    -1.11000
O233        O  0.68886412  0.10895868  0.48789237    -0.73500
O234        O  0.69096548  0.05585573  0.50417197    -0.77000
O235        O  0.71547912  0.00527856  0.42062022    -0.77600
C236        C  0.68840495  0.08736894  0.50728351     0.97600
O237        O  0.67497994  0.04746088  0.45357980    -0.75600
O238        O  0.71478736  0.12837361  0.46754660    -0.80800
C239        C  0.71437367  0.10304573  0.39502835     1.00200
C240        C  0.72720128  0.12085174  0.46572361     1.06200
O241        O  0.71985985  0.07469716  0.40112367    -0.76400
C242        C  0.67174845  0.07232001  0.43813782     1.04500
Fe243      Fe  0.54758399  0.20826060  0.46875077     1.65800
Fe244      Fe  0.54136412  0.12472921  0.45386101     1.73200
Fe245      Fe  0.51719762  0.18509082  0.44150697     1.54400
O246        O  0.51258095  0.21047533  0.47714470    -0.80200
O247        O  0.53262210  0.11509003  0.41590487    -0.78500
O248        O  0.53207200  0.23630417  0.48715876    -0.82700
O249        O  0.54591078  0.23661375  0.43363684    -0.77500
O250        O  0.50781929  0.14181873  0.45732026    -0.79300
O251        O  0.55929884  0.13573138  0.43461053    -0.82100
C252        C  0.53529643  0.24515755  0.42080993     0.98700
C253        C  0.51941941  0.23217340  0.49050750     1.06200
O254        O  0.53540249  0.17265010  0.45449296    -1.11000
O255        O  0.55037092  0.12781903  0.49219872    -0.73500
O256        O  0.54989969  0.18277831  0.50498940    -0.77000
O257        O  0.52397661  0.23011167  0.42359727    -0.77600
C258        C  0.55167987  0.15127358  0.51000730     0.97600
O259        O  0.56517396  0.18555970  0.45330955    -0.75600
O260        O  0.52429878  0.10827203  0.47317333    -0.80800
C261        C  0.52496908  0.13123910  0.39945872     1.00200
C262        C  0.51194906  0.11537047  0.46979973     1.06200
O263        O  0.51988760  0.16034971  0.40476023    -0.76400
C264        C  0.56797524  0.15860011  0.43989013     1.04500
Fe265      Fe  0.69505753  0.70717192  0.26447749     1.65800
Fe266      Fe  0.70086028  0.62427616  0.28157212     1.73200
Fe267      Fe  0.72483698  0.68493384  0.29511540     1.54400
O268        O  0.73022912  0.71131813  0.26039910    -0.80200
O269        O  0.70936091  0.61423726  0.31968529    -0.78500
O270        O  0.71088992  0.73499895  0.24673893    -0.82700
O271        O  0.69593572  0.73674557  0.29900695    -0.77500
O272        O  0.73447245  0.64210503  0.27883353    -0.79300
O273        O  0.68282250  0.63596580  0.30016915    -0.82100
C274        C  0.70600829  0.74497745  0.31362095     0.98700
C275        C  0.72368508  0.73188568  0.24545618     1.06200
O276        O  0.70691853  0.67218376  0.28065947    -1.11000
O277        O  0.69198214  0.62650518  0.24305852    -0.73500
O278        O  0.69356132  0.68057533  0.22861738    -0.77000
O279        O  0.71733236  0.72942287  0.31302569    -0.77600
C280        C  0.69128910  0.64910247  0.22445963     0.97600
O281        O  0.67718251  0.68434040  0.27886105    -0.75600
O282        O  0.71807603  0.60815942  0.26282697    -0.80800
C283        C  0.71693301  0.63011898  0.33639773     1.00200
C284        C  0.73039943  0.61577725  0.26599769     1.06200
O285        O  0.72186803  0.65946588  0.33150095    -0.76400
C286        C  0.67415045  0.65804746  0.29298606     1.04500
Fe287      Fe  0.54785973  0.52612491  0.26273609     1.65800
Fe288      Fe  0.54292297  0.60865357  0.28208143     1.73200
Fe289      Fe  0.51803026  0.54929486  0.29261467     1.54400
O290        O  0.51281523  0.52433293  0.25694106    -0.80200
O291        O  0.53435467  0.61751992  0.32022866    -0.78500
O292        O  0.53206609  0.49958723  0.24416843    -0.82700
O293        O  0.54645447  0.49552931  0.29671567    -0.77500
O294        O  0.50906730  0.59311993  0.27685389    -0.79300
O295        O  0.56076826  0.59451028  0.30052969    -0.82100
C296        C  0.53612685  0.48769848  0.31083125     0.98700
C297        C  0.51936797  0.50357498  0.24212361     1.06200
O298        O  0.53625711  0.56133769  0.27945945    -1.11000
O299        O  0.55186568  0.60742208  0.24366933    -0.73500
O300        O  0.54961851  0.55415087  0.22763782    -0.77000
O301        O  0.52495738  0.50393273  0.30991683    -0.77600
C302        C  0.55220301  0.58565815  0.22441805     0.97600
O303        O  0.56590494  0.54706869  0.27754277    -0.75600
O304        O  0.52598239  0.62745771  0.26375066    -0.80800
C305        C  0.52609499  0.60205999  0.33582975     1.00200
C306        C  0.51355411  0.62013073  0.26561503     1.06200
O307        O  0.52066075  0.57360208  0.32974018    -0.76400
C308        C  0.56921579  0.57227663  0.29253496     1.04500
Fe309      Fe  0.69378385  0.52550201  0.96915091     1.65800
Fe310      Fe  0.69953448  0.60803372  0.95107695     1.73200
Fe311      Fe  0.72324440  0.54716091  0.93730381     1.54400
O312        O  0.72888971  0.52246306  0.97267506    -0.80200
O313        O  0.70795011  0.61746235  0.91264762    -0.78500
O314        O  0.70976396  0.49764294  0.98632562    -0.82700
O315        O  0.69417342  0.49563326  0.93464079    -0.77500
O316        O  0.73298334  0.59070460  0.95200681    -0.79300
O317        O  0.68145658  0.59595063  0.93286470    -0.82100
C318        C  0.70422257  0.48680993  0.92012330     0.98700
C319        C  0.72251171  0.50174644  0.98781807     1.06200
O320        O  0.70550438  0.56017609  0.95220362    -1.11000
O321        O  0.69084635  0.60626866  0.98988170    -0.73500
O322        O  0.69291207  0.55255680  0.00490058    -0.77000
O323        O  0.71563714  0.50193988  0.92074220    -0.77600
C324        C  0.69064364  0.58407420  0.00885813     0.97600
O325        O  0.67580537  0.54850550  0.95546762    -0.75600
O326        O  0.71683589  0.62429851  0.96941881    -0.80800
C327        C  0.71515804  0.60096135  0.89559826     1.00200
C328        C  0.72910884  0.61697914  0.96515594     1.06200
O329        O  0.71981282  0.57127596  0.90043322    -0.76400
C330        C  0.67276945  0.57426200  0.94073229     1.04500
Fe331      Fe  0.54795898  0.70892036  0.97216993     1.65800
Fe332      Fe  0.54185215  0.62657652  0.95373450     1.73200
Fe333      Fe  0.51785011  0.68770240  0.94209573     1.54400
O334        O  0.51290674  0.71418507  0.97717672    -0.80200
O335        O  0.53255586  0.61668996  0.91643259    -0.78500
O336        O  0.53245233  0.73585401  0.99172031    -0.82700
O337        O  0.54661141  0.74002619  0.93862965    -0.77500
O338        O  0.50840123  0.64498500  0.95870325    -0.79300
O339        O  0.55951383  0.63901137  0.93383418    -0.82100
C340        C  0.53659390  0.74783810  0.92374556     0.98700
C341        C  0.51963726  0.73348489  0.99286857     1.06200
O342        O  0.53587586  0.67452088  0.95572614    -1.11000
O343        O  0.55163566  0.62766227  0.99124427    -0.73500
O344        O  0.55004287  0.68098559  0.00717349    -0.77000
O345        O  0.52535479  0.73191317  0.92398441    -0.77600
C346        C  0.55258633  0.64949551  0.01030065     0.97600
O347        O  0.56550058  0.68670598  0.95585982    -0.75600
O348        O  0.52489837  0.61047348  0.97369403    -0.80800
C349        C  0.52473269  0.63252231  0.90022316     1.00200
C350        C  0.51254644  0.61837244  0.97105926     1.06200
O351        O  0.52010766  0.66217693  0.90531294    -0.76400
C352        C  0.56827402  0.66106325  0.94079320     1.04500
Fe353      Fe  0.29964075  0.77739081  0.21905412     1.65800
Fe354      Fe  0.29323234  0.86021309  0.19975419     1.73200
Fe355      Fe  0.26932347  0.79789407  0.18858837     1.54400
O356        O  0.27733059  0.75612534  0.16800358    -0.80200
O357        O  0.27526956  0.87770237  0.21466431    -0.78500
O358        O  0.29751352  0.74421410  0.18662108    -0.82700
O359        O  0.28437998  0.75260742  0.24061819    -0.77500
O360        O  0.27067518  0.82648908  0.15314471    -0.79300
O361        O  0.30045095  0.86103630  0.23963855    -0.82100
C362        C  0.27155904  0.75193192  0.23981819     0.98700
C363        C  0.28812306  0.73846826  0.16957054     1.06200
O364        O  0.28741747  0.81178903  0.20225445    -1.11000
O365        O  0.31208553  0.84879077  0.18455114    -0.73500
O366        O  0.31707501  0.79699896  0.20086395    -0.77000
O367        O  0.26477492  0.76804244  0.22212128    -0.77600
C368        C  0.32027414  0.82436475  0.18841455     0.97600
O369        O  0.30270071  0.80677088  0.25329724    -0.75600
O370        O  0.28626641  0.86693410  0.16003753    -0.80800
C371        C  0.26321189  0.86708964  0.21616497     1.00200
C372        C  0.27709697  0.85299956  0.14565434     1.06200
O373        O  0.25936496  0.83791953  0.20780392    -0.76400
C374        C  0.30298220  0.83870748  0.25778580     1.04500
Fe375      Fe  0.44385028  0.95973032  0.22105770     1.65800
Fe376      Fe  0.44964956  0.87653778  0.20230179     1.73200
Fe377      Fe  0.47433295  0.93713807  0.19227700     1.54400
O378        O  0.46717324  0.98013937  0.17202772    -0.80200
O379        O  0.46714541  0.85770363  0.21833755    -0.78500
O380        O  0.44646944  0.99201624  0.18824272    -0.82700
O381        O  0.45912327  0.98438479  0.24256188    -0.77500
O382        O  0.47284636  0.90955624  0.15636415    -0.79300
O383        O  0.44181979  0.87650513  0.24165309    -0.82100
C384        C  0.47194034  0.98332772  0.24305138     0.98700
C385        C  0.45635690  0.99781009  0.17235102     1.06200
O386        O  0.45593682  0.92450789  0.20501205    -1.11000
O387        O  0.43120820  0.88913430  0.18594074    -0.73500
O388        O  0.42632601  0.94062804  0.20289742    -0.77000
O389        O  0.47882905  0.96564873  0.22649019    -0.77600
C390        C  0.42308111  0.91359519  0.19006104     0.97600
O391        O  0.44043146  0.93094270  0.25547075    -0.75600
O392        O  0.45710829  0.86937807  0.16307137    -0.80800
C393        C  0.47934448  0.86720172  0.21972542     1.00200
C394        C  0.46631467  0.88326415  0.14875450     1.06200
O395        O  0.48360373  0.89588185  0.21114121    -0.76400
C396        C  0.43957446  0.89902078  0.25979882     1.04500
Fe397      Fe  0.29953593  0.95876548  0.51329903     1.65800
Fe398      Fe  0.29318141  0.87583314  0.53143023     1.73200
Fe399      Fe  0.26880954  0.93718964  0.54113099     1.54400
O400        O  0.27592648  0.98103408  0.56054139    -0.80200
O401        O  0.27602437  0.85818549  0.51325029    -0.78500
O402        O  0.29720205  0.99043969  0.54653201    -0.82700
O403        O  0.28440904  0.98484497  0.49203944    -0.77500
O404        O  0.27027656  0.91100743  0.57767367    -0.79300
O405        O  0.30201565  0.87615364  0.49284787    -0.82100
C406        C  0.27160370  0.98296734  0.49041916     0.98700
C407        C  0.28701883  0.99759074  0.56125315     1.06200
O408        O  0.28717848  0.92396817  0.52885172    -1.11000
O409        O  0.31124886  0.88777401  0.54983521    -0.73500
O410        O  0.31686088  0.93794200  0.53129561    -0.77000
O411        O  0.26458196  0.96435062  0.50609766    -0.77600
C412        C  0.31974398  0.91122895  0.54494511     0.97600
O413        O  0.30268831  0.93044500  0.47855076    -0.75600
O414        O  0.28465425  0.86799064  0.56978735    -0.80800
C415        C  0.26375262  0.86722957  0.51307109     1.00200
C416        C  0.27600185  0.88326531  0.58463633     1.06200
O417        O  0.25947597  0.89515804  0.52316035    -0.76400
C418        C  0.30397294  0.89856591  0.47447091     1.04500
Fe419      Fe  0.44420181  0.77662709  0.51345200     1.65800
Fe420      Fe  0.45058832  0.85889727  0.53240106     1.73200
Fe421      Fe  0.47476088  0.79718220  0.54214477     1.54400
O422        O  0.46721198  0.75343396  0.56103626    -0.80200
O423        O  0.46775481  0.87611620  0.51396889    -0.78500
O424        O  0.44581067  0.74552758  0.54706780    -0.82700
O425        O  0.45937562  0.74925381  0.49338779    -0.77500
O426        O  0.47316012  0.82300464  0.57887868    -0.79300
O427        O  0.44155941  0.85871547  0.49401814    -0.82100
C428        C  0.47217556  0.75103690  0.49173672     0.98700
C429        C  0.45591675  0.73772785  0.56176838     1.06200
O430        O  0.45653949  0.81086088  0.52957270    -1.11000
O431        O  0.43259132  0.84685545  0.55108495    -0.73500
O432        O  0.42669849  0.79861687  0.52995829    -0.77000
O433        O  0.47917359  0.77013764  0.50707198    -0.77600
C434        C  0.42387271  0.82462599  0.54450045     0.97600
O435        O  0.44195024  0.80489772  0.47854958    -0.75600
O436        O  0.45918621  0.86668829  0.57063652    -0.80800
C437        C  0.48003480  0.86707282  0.51412212     1.00200
C438        C  0.46758613  0.85099246  0.58573308     1.06200
O439        O  0.48427618  0.83928207  0.52454919    -0.76400
C440        C  0.44014657  0.83671728  0.47512313     1.04500
Fe441      Fe  0.79642192  0.27688790  0.21878685     1.65800
Fe442      Fe  0.79055709  0.36096579  0.20286545     1.73200
Fe443      Fe  0.76635440  0.30028971  0.18875836     1.54400
O444        O  0.77399750  0.25812929  0.16784591    -0.80200
O445        O  0.77271264  0.37815120  0.21862182    -0.78500
O446        O  0.79457366  0.24639622  0.18465093    -0.82700
O447        O  0.78080130  0.25062074  0.23840910    -0.77500
O448        O  0.76850240  0.32959715  0.15377410    -0.79300
O449        O  0.79779481  0.35874046  0.24258934    -0.82100
C450        C  0.76795916  0.25176363  0.23838140     0.98700
C451        C  0.78490922  0.24079752  0.16819861     1.06200
O452        O  0.78446753  0.31269008  0.20322212    -1.11000
O453        O  0.80943622  0.35017606  0.18730065    -0.73500
O454        O  0.81421222  0.29782611  0.20268744    -0.77000
O455        O  0.76131640  0.27026603  0.22196547    -0.77600
C456        C  0.81765085  0.32584055  0.19139060     0.97600
O457        O  0.79914442  0.30360157  0.25447746    -0.75600
O458        O  0.78360061  0.37040348  0.16352869    -0.80800
C459        C  0.76049945  0.36861895  0.21830072     1.00200
C460        C  0.77488164  0.35683924  0.14783785     1.06200
O461        O  0.75651163  0.34059388  0.20797428    -0.76400
C462        C  0.79986960  0.33524625  0.26000344     1.04500
Fe463      Fe  0.94498515  0.45329342  0.21902622     1.65800
Fe464      Fe  0.95131061  0.37072061  0.20014498     1.73200
Fe465      Fe  0.97484710  0.43327511  0.18733204     1.54400
O466        O  0.96676864  0.47713270  0.16963342    -0.80200
O467        O  0.96923598  0.35389357  0.21552939    -0.78500
O468        O  0.94559488  0.48433939  0.18502749    -0.82700
O469        O  0.96057958  0.48101674  0.23734798    -0.77500
O470        O  0.97215482  0.40759675  0.15077102    -0.79300
O471        O  0.94401053  0.37085279  0.24004179    -0.82100
C472        C  0.97339712  0.47907194  0.23811726     0.98700
C473        C  0.95541711  0.49253548  0.16962424     1.06200
O474        O  0.95703156  0.41907820  0.20189540    -1.11000
O475        O  0.93240850  0.38148173  0.18468610    -0.73500
O476        O  0.92712272  0.43094425  0.20463813    -0.77000
O477        O  0.98009818  0.45987003  0.22226533    -0.77600
C478        C  0.92388436  0.40415984  0.19142034     0.97600
O479        O  0.94377428  0.42526171  0.25430057    -0.75600
O480        O  0.95850526  0.36357698  0.16053364    -0.80800
C481        C  0.98143286  0.36321945  0.21357340     1.00200
C482        C  0.96647069  0.37948285  0.14453188     1.06200
O483        O  0.98515164  0.39136156  0.20304718    -0.76400
C484        C  0.94279759  0.39336963  0.25862934     1.04500
Fe485      Fe  0.79779660  0.45503195  0.51529781     1.65800
Fe486      Fe  0.79045462  0.37310433  0.53475710     1.73200
Fe487      Fe  0.76686295  0.43672567  0.54342074     1.54400
O488        O  0.77458612  0.48075722  0.56166780    -0.80200
O489        O  0.77289476  0.35619501  0.51775270    -0.78500
O490        O  0.79615717  0.48738758  0.54843887    -0.82700
O491        O  0.78298727  0.48257120  0.49444177    -0.77500
O492        O  0.76812262  0.41163771  0.58051602    -0.79300
O493        O  0.79872384  0.37172974  0.49561685    -0.82100
C494        C  0.77019519  0.48133634  0.49245133     0.98700
C495        C  0.78593131  0.49620609  0.56252758     1.06200
O496        O  0.78505425  0.42163661  0.53145762    -1.11000
O497        O  0.80901198  0.38359737  0.55200933    -0.73500
O498        O  0.81504442  0.43280992  0.53254955    -0.77000
O499        O  0.76292848  0.46287740  0.50777847    -0.77600
C500        C  0.81779056  0.40608814  0.54628309     0.97600
O501        O  0.80004696  0.42578059  0.48074893    -0.75600
O502        O  0.78221808  0.36763456  0.57371331    -0.80800
C503        C  0.76076583  0.36630122  0.51718922     1.00200
C504        C  0.77370513  0.38398701  0.58822395     1.06200
O505        O  0.75687886  0.39499654  0.52647447    -0.76400
C506        C  0.80072183  0.39371854  0.47689433     1.04500
Fe507      Fe  0.94444482  0.27949967  0.51577855     1.65800
Fe508      Fe  0.95106623  0.36216880  0.53469132     1.73200
Fe509      Fe  0.97474696  0.29937226  0.54638169     1.54400
O510        O  0.96677251  0.25618691  0.56535083    -0.80200
O511        O  0.96904240  0.37926067  0.51971346    -0.78500
O512        O  0.94595384  0.24709185  0.54873424    -0.82700
O513        O  0.95979633  0.25340210  0.49533259    -0.77500
O514        O  0.97275775  0.32632756  0.58258735    -0.79300
O515        O  0.94401422  0.36270658  0.49478948    -0.82100
C516        C  0.97263517  0.25403077  0.49503412     0.98700
C517        C  0.95565923  0.23972584  0.56460937     1.06200
O518        O  0.95673144  0.31364857  0.53255670    -1.11000
O519        O  0.93203984  0.35162907  0.54975610    -0.73500
O520        O  0.92685224  0.30041251  0.53266677    -0.77000
O521        O  0.97951691  0.27146124  0.51181386    -0.77600
C522        C  0.92364855  0.32785565  0.54505042     0.97600
O523        O  0.94214057  0.30832375  0.48110363    -0.75600
O524        O  0.95810364  0.36874213  0.57436309    -0.80800
C525        C  0.98118656  0.36926261  0.51982639     1.00200
C526        C  0.96668467  0.35366509  0.58951187     1.06200
O527        O  0.98497316  0.34048803  0.52910048    -0.76400
C528        C  0.94191645  0.34024306  0.47654696     1.04500
Fe529      Fe  0.04808570  0.02758759  0.26583875     1.65800
Fe530      Fe  0.04152209  0.11110747  0.28182900     1.73200
Fe531      Fe  0.01748022  0.04952054  0.29404335     1.54400
O532        O  0.01308571  0.02075388  0.25980867    -0.80200
O533        O  0.03347208  0.12023448  0.32045336    -0.78500
O534        O  0.03290042  0.00016105  0.24585293    -0.82700
O535        O  0.04621983  0.99754594  0.30016961    -0.77500
O536        O  0.00774138  0.09018190  0.27522818    -0.79300
O537        O  0.06001353  0.10073572  0.29934603    -0.82100
C538        C  0.03617321  0.99081614  0.31540107     0.98700
C539        C  0.02009025  0.00181892  0.24432201     1.06200
O540        O  0.03571129  0.06273436  0.28084502    -1.11000
O541        O  0.04974720  0.10923035  0.24276102    -0.73500
O542        O  0.05072899  0.05428701  0.23015219    -0.77000
O543        O  0.02498736  0.00692232  0.31446493    -0.77600
C544        C  0.05170320  0.08599307  0.22503741     0.97600
O545        O  0.06554620  0.04966738  0.28236744    -0.75600
O546        O  0.02400821  0.12743083  0.26424075    -0.80800
C547        C  0.02487068  0.10559639  0.33584549     1.00200
C548        C  0.01180021  0.11784613  0.26442994     1.06200
O549        O  0.01910650  0.07756888  0.32972215    -0.76400
C550        C  0.06854021  0.07719539  0.29485171     1.04500
Fe551      Fe  0.19474286  0.20730054  0.26419053     1.65800
Fe552      Fe  0.20022518  0.12353798  0.28036710     1.73200
Fe553      Fe  0.22468091  0.18329457  0.29366995     1.54400
O554        O  0.22991841  0.21015059  0.25889256    -0.80200
O555        O  0.20831903  0.11339490  0.31873372    -0.78500
O556        O  0.21055525  0.23379589  0.24528083    -0.82700
O557        O  0.19639762  0.23715555  0.29858327    -0.77500
O558        O  0.23404982  0.14053964  0.27687865    -0.79300
O559        O  0.18203775  0.13549804  0.29833132    -0.82100
C560        C  0.20658524  0.24424238  0.31326085     0.98700
C561        C  0.22332469  0.23039686  0.24369840     1.06200
O562        O  0.20653680  0.17139942  0.27965868    -1.11000
O563        O  0.19179722  0.12618349  0.24160246    -0.73500
O564        O  0.19236113  0.18090018  0.22837881    -0.77000
O565        O  0.21766656  0.22768199  0.31241451    -0.77600
C566        C  0.19058267  0.14935586  0.22360165     0.97600
O567        O  0.17687620  0.18598843  0.27980207    -0.75600
O568        O  0.21748278  0.10619999  0.26232200    -0.80800
C569        C  0.21634178  0.12840574  0.33509211     1.00200
C570        C  0.22984289  0.11373971  0.26493584     1.06200
O571        O  0.22185799  0.15704648  0.32987852    -0.76400
C572        C  0.17366051  0.15906081  0.29293411     1.04500
Fe573      Fe  0.04841148  0.20541477  0.96948408     1.65800
Fe574      Fe  0.04259924  0.12310611  0.95079942     1.73200
Fe575      Fe  0.01874327  0.18430556  0.93796343     1.54400
O576        O  0.01330704  0.21044666  0.97298108    -0.80200
O577        O  0.03402938  0.11367357  0.91265023    -0.78500
O578        O  0.03264122  0.23346642  0.98725273    -0.82700
O579        O  0.04786788  0.23590182  0.93530376    -0.77500
O580        O  0.00902503  0.14120561  0.95380775    -0.79300
O581        O  0.06057150  0.13541564  0.93221589    -0.82100
C582        C  0.03793971  0.24440839  0.92033762     0.98700
C583        C  0.01982965  0.23076434  0.98822292     1.06200
O584        O  0.03656825  0.17102131  0.95244409    -1.11000
O585        O  0.05150655  0.12428686  0.98939139    -0.73500
O586        O  0.04944963  0.17773061  0.00496735    -0.77000
O587        O  0.02656317  0.22896265  0.92051230    -0.77600
C588        C  0.05181512  0.14618040  0.00857207     0.97600
O589        O  0.06629080  0.18256140  0.95510659    -0.75600
O590        O  0.02539034  0.10667198  0.96927515    -0.80800
C591        C  0.02640257  0.12964185  0.89610449     1.00200
C592        C  0.01307657  0.11444697  0.96616215     1.06200
O593        O  0.02158019  0.15910609  0.90120283    -0.76400
C594        C  0.06926956  0.15710227  0.93999979     1.04500
Fe595      Fe  0.19497440  0.02756690  0.96895434     1.65800
Fe596      Fe  0.20160966  0.11035579  0.95030454     1.73200
Fe597      Fe  0.22548063  0.04788941  0.93928612     1.54400
O598        O  0.22995139  0.01923598  0.97345991    -0.80200
O599        O  0.20901120  0.11726652  0.91089781    -0.78500
O600        O  0.21016836  0.00138597  0.98978820    -0.82700
O601        O  0.19684569  0.99539478  0.93592380    -0.77500
O602        O  0.23546069  0.08851374  0.95752791    -0.79300
O603        O  0.18280575  0.09958121  0.93446324    -0.82100
C604        C  0.20662722  0.98863217  0.92003158     0.98700
C605        C  0.22300913  0.00170217  0.99003815     1.06200
O606        O  0.20733764  0.06191203  0.95262202    -1.11000
O607        O  0.19401866  0.11065306  0.98986116    -0.73500
O608        O  0.19221113  0.05625364  0.00358046    -0.77000
O609        O  0.21767060  0.00533345  0.91954540    -0.77600
C610        C  0.19165985  0.08818305  0.00799010     0.97600
O611        O  0.17753391  0.04842359  0.95160961    -0.75600
O612        O  0.21942896  0.12741852  0.96601955    -0.80800
C613        C  0.21784138  0.10247632  0.89614463     1.00200
C614        C  0.23155669  0.11726046  0.96661876     1.06200
O615        O  0.22395015  0.07536273  0.90334703    -0.76400
C616        C  0.17441322  0.07578879  0.93907210     1.04500
Fe617      Fe  0.29875489  0.27818927  0.71867943     1.65800
Fe618      Fe  0.29208755  0.36132279  0.70410098     1.73200
Fe619      Fe  0.26841176  0.30010461  0.69053106     1.54400
O620        O  0.27586183  0.25615525  0.67164862    -0.80200
O621        O  0.27512879  0.37566957  0.72474910    -0.78500
O622        O  0.29763882  0.25006496  0.68339038    -0.82700
O623        O  0.28336603  0.24872009  0.73644858    -0.77500
O624        O  0.27085751  0.32648060  0.65432890    -0.79300
O625        O  0.30180457  0.35792222  0.74171567    -0.82100
C626        C  0.27059242  0.25146687  0.73889386     0.98700
C627        C  0.28732328  0.24144837  0.66962424     1.06200
O628        O  0.28641536  0.31315918  0.70417455    -1.11000
O629        O  0.30981451  0.35121179  0.68368268    -0.73500
O630        O  0.31622221  0.30262398  0.70377750    -0.77000
O631        O  0.26370092  0.27280672  0.72528313    -0.77600
C632        C  0.31878356  0.32932958  0.68973466     0.97600
O633        O  0.30050235  0.30340120  0.75514314    -0.75600
O634        O  0.28273945  0.37244229  0.66694566    -0.80800
C635        C  0.26280995  0.36817435  0.72126502     1.00200
C636        C  0.27531049  0.35648506  0.65000114     1.06200
O637        O  0.25878621  0.34238731  0.70769989    -0.76400
C638        C  0.30282020  0.33474509  0.75979040     1.04500
Fe639      Fe  0.44497590  0.45727889  0.71982094     1.65800
Fe640      Fe  0.45089725  0.37489398  0.70103457     1.73200
Fe641      Fe  0.47527089  0.43595225  0.69074731     1.54400
O642        O  0.46785720  0.48026259  0.67249314    -0.80200
O643        O  0.46812518  0.35708757  0.71895731    -0.78500
O644        O  0.44628471  0.48733601  0.68563751    -0.82700
O645        O  0.46040908  0.48499222  0.73883060    -0.77500
O646        O  0.47320693  0.41081683  0.65390556    -0.79300
O647        O  0.44211753  0.37566074  0.73972447    -0.82100
C648        C  0.47316328  0.48210780  0.74096478     0.98700
C649        C  0.45646495  0.49545117  0.67125472     1.06200
O650        O  0.45707772  0.42267518  0.70363722    -1.11000
O651        O  0.43280280  0.38739341  0.68275349    -0.73500
O652        O  0.42720864  0.43541115  0.70443594    -0.77000
O653        O  0.48000247  0.46199616  0.72614082    -0.77600
C654        C  0.42418376  0.40971341  0.68973607     0.97600
O655        O  0.44309482  0.42954420  0.75505872    -0.75600
O656        O  0.45929738  0.36704343  0.66260359    -0.80800
C657        C  0.48045800  0.36562410  0.71796984     1.00200
C658        C  0.46759818  0.38279817  0.64727729     1.06200
O659        O  0.48470423  0.39327727  0.70737262    -0.76400
C660        C  0.44105171  0.39782509  0.75862331     1.04500
Fe661      Fe  0.29777596  0.45689824  0.01304924     1.65800
Fe662      Fe  0.29188054  0.37339856  0.03052898     1.73200
Fe663      Fe  0.26718880  0.43392832  0.04096537     1.54400
O664        O  0.27414511  0.47731780  0.06110919    -0.80200
O665        O  0.27459693  0.35536877  0.01289946    -0.78500
O666        O  0.29518203  0.48829261  0.04637216    -0.82700
O667        O  0.28249406  0.48241872  0.99176146    -0.77500
O668        O  0.26874903  0.40652781  0.07704229    -0.79300
O669        O  0.30040470  0.37450880  0.99184923    -0.82100
C670        C  0.26967515  0.48066716  0.99049539     0.98700
C671        C  0.28506873  0.49456211  0.06153966     1.06200
O672        O  0.28562785  0.42143510  0.02841375    -1.11000
O673        O  0.31017349  0.38541073  0.04816390    -0.73500
O674        O  0.31527677  0.43663539  0.03087604    -0.77000
O675        O  0.26275321  0.46211301  0.00642403    -0.77600
C676        C  0.31847780  0.40944487  0.04364026     0.97600
O677        O  0.30125227  0.42909549  0.97826389    -0.75600
O678        O  0.28375657  0.36491120  0.06909950    -0.80800
C679        C  0.26231899  0.36441486  0.01244959     1.00200
C680        C  0.27485129  0.37924016  0.08392793     1.06200
O681        O  0.25799202  0.39238416  0.02229772    -0.76400
C682        C  0.30259851  0.39730849  0.97392987     1.04500
Fe683      Fe  0.44355306  0.27812200  0.01399156     1.65800
Fe684      Fe  0.44994769  0.36176279  0.02979324     1.73200
Fe685      Fe  0.47434800  0.30090063  0.04058038     1.54400
O686        O  0.46747845  0.25707361  0.06035462    -0.80200
O687        O  0.46698861  0.37871975  0.01071128    -0.78500
O688        O  0.44597197  0.24783273  0.04796486    -0.82700
O689        O  0.45870938  0.25116387  0.99330765    -0.77500
O690        O  0.47269271  0.32759522  0.07684294    -0.79300
O691        O  0.44093191  0.35974089  0.99148879    -0.82100
C692        C  0.47149265  0.25351698  0.99101619     0.98700
C693        C  0.45638905  0.24062787  0.06193896     1.06200
O694        O  0.45593966  0.31357345  0.02835097    -1.11000
O695        O  0.43195465  0.35063981  0.04890226    -0.73500
O696        O  0.42625243  0.29978956  0.03170502    -0.77000
O697        O  0.47854207  0.27330417  0.00571576    -0.77600
C698        C  0.42342259  0.32704135  0.04476569     0.97600
O699        O  0.44029714  0.30489090  0.97856562    -0.75600
O700        O  0.45868026  0.37104799  0.06777821    -0.80800
C701        C  0.47930892  0.37018465  0.01130994     1.00200
C702        C  0.46714226  0.35584034  0.08310963     1.06200
O703        O  0.48361896  0.34287787  0.02233967    -0.76400
C704        C  0.43892360  0.33657081  0.97375052     1.04500
C705        C  0.38439294  0.35588662  0.05707080     0.18500
C706        C  0.37852517  0.36631283  0.03240833    -0.10600
C707        C  0.36538106  0.37973922  0.03191468    -0.11400
C708        C  0.35792025  0.38305621  0.05609748     0.20100
C709        C  0.36378900  0.37280323  0.08086491    -0.13500
C710        C  0.37699163  0.35934105  0.08136296    -0.11800
C711        C  0.34411095  0.39568104  0.05500641     0.01100
C712        C  0.33241690  0.40408199  0.05154319    -0.31800
C713        C  0.39805401  0.34227190  0.05695056     0.02400
C714        C  0.40964402  0.33309575  0.05339744    -0.33400
H715        H  0.38411261  0.36396713  0.01348748     0.13500
H716        H  0.36099860  0.38733341  0.01259399     0.13300
H717        H  0.35814459  0.37501261  0.09971741     0.13200
H718        H  0.38138814  0.35155821  0.10061624     0.12200
C719        C  0.43403132  0.37398502  0.83796500     0.18500
C720        C  0.42836329  0.34345490  0.84775851    -0.10600
C721        C  0.42785489  0.33720325  0.87584527    -0.11400
C722        C  0.43299787  0.36147573  0.89420120     0.20100
C723        C  0.43840794  0.39227396  0.88438617    -0.13500
C724        C  0.43891249  0.39851699  0.85635341    -0.11800
C725        C  0.43366614  0.35383334  0.92287984     0.01100
C726        C  0.43540924  0.34663586  0.94652490    -0.31800
C727        C  0.43545622  0.37978985  0.80914249     0.02400
C728        C  0.43757494  0.38665715  0.78557005    -0.33400
H729        H  0.42459724  0.32426922  0.83371538     0.13500
H730        H  0.42373913  0.31318469  0.88320380     0.13300
H731        H  0.44250705  0.41110488  0.89835935     0.13200
H732        H  0.44335616  0.42216498  0.84899248     0.12200
C733        C  0.31006711  0.37162918  0.89520495     0.18500
C734        C  0.31195149  0.39830699  0.87646196    -0.10600
C735        C  0.31190524  0.39141930  0.84849532    -0.11400
C736        C  0.30997591  0.35783212  0.83920986     0.20100
C737        C  0.30841255  0.33105043  0.85797926    -0.13500
C738        C  0.30845357  0.33793789  0.88593568    -0.11800
C739        C  0.30864542  0.35106977  0.81054099     0.01100
C740        C  0.30649739  0.34439871  0.78696688    -0.31800
C741        C  0.30870635  0.37922864  0.92372110     0.02400
C742        C  0.30645021  0.38669240  0.94709609    -0.33400
H743        H  0.31309408  0.42449582  0.88344058     0.13500
H744        H  0.31302723  0.41233474  0.83414262     0.13300
H745        H  0.30681810  0.30501855  0.85099100     0.13200
H746        H  0.30687509  0.31718338  0.90026358     0.12200
C747        C  0.38479809  0.38303122  0.67626854     0.18500
C748        C  0.38210798  0.34862253  0.68258367    -0.10600
C749        C  0.36879692  0.33618408  0.68238441    -0.11400
C750        C  0.35799671  0.35797133  0.67584940     0.20100
C751        C  0.36068570  0.39228280  0.66903959    -0.13500
C752        C  0.37402888  0.40475370  0.66924441    -0.11800
C753        C  0.34417239  0.34567223  0.67793021     0.01100
C754        C  0.33260285  0.33655324  0.68189898    -0.31800
C755        C  0.39852821  0.39597692  0.67834721     0.02400
C756        C  0.41021049  0.40420580  0.68216745    -0.33400
H757        H  0.39028829  0.33152895  0.68816714     0.13500
H758        H  0.36690729  0.30971373  0.68787284     0.13300
H759        H  0.35245717  0.40954380  0.66411339     0.13200
H760        H  0.37590868  0.43142960  0.66441850     0.12200
C761        C  0.24640531  0.27644776  0.99255169     0.18500
C762        C  0.24513823  0.26239010  0.96645573    -0.10600
C763        C  0.24526677  0.22686160  0.96311794    -0.11400
C764        C  0.24682067  0.20538250  0.98581559     0.20100
C765        C  0.24791064  0.21942821  0.01193769    -0.13500
C766        C  0.24777198  0.25494324  0.01527916    -0.11800
C767        C  0.24553377  0.16912049  0.98235193     0.01100
C768        C  0.24111402  0.14139515  0.97668452    -0.31800
C769        C  0.24829406  0.31256418  0.99595423     0.02400
C770        C  0.25302655  0.33991768  0.00181234    -0.33400
H771        H  0.24429696  0.27882743  0.94873537     0.13500
H772        H  0.24408819  0.21611377  0.94288508     0.13300
H773        H  0.24879747  0.20298798  0.02964798     0.13200
H774        H  0.24898626  0.26567132  0.03550998     0.12200
C775        C  0.23425141  0.15318318  0.83117854     0.18500
C776        C  0.23386029  0.18912190  0.83154516    -0.10600
C777        C  0.24127944  0.20816666  0.81243824    -0.11400
C778        C  0.24923194  0.19154429  0.79276877     0.20100
C779        C  0.24955896  0.15557171  0.79223197    -0.13500
C780        C  0.24212658  0.13649117  0.81137557    -0.11800
C781        C  0.25713292  0.21154006  0.77352109     0.01100
C782        C  0.26352101  0.22931626  0.75781565    -0.31800
C783        C  0.22711599  0.13373078  0.85193696     0.02400
C784        C  0.22199991  0.11861258  0.87094359    -0.33400
H785        H  0.22792747  0.20245777  0.84680109     0.13500
H786        H  0.24090754  0.23590203  0.81316996     0.13300
H787        H  0.25564537  0.14228610  0.77719689     0.13200
H788        H  0.24263558  0.10876327  0.81090662     0.12200
C789        C  0.10848288  0.12884142  0.92675266     0.18500
C790        C  0.11953945  0.15132817  0.92600001    -0.10600
C791        C  0.13279217  0.13846823  0.92566863    -0.11400
C792        C  0.13512310  0.10298297  0.92607904     0.20100
C793        C  0.12406129  0.08047023  0.92641888    -0.13500
C794        C  0.11080188  0.09333679  0.92673628    -0.11800
C795        C  0.14883843  0.09001026  0.92779390     0.01100
C796        C  0.16049285  0.08148958  0.93137945    -0.31800
C797        C  0.09481981  0.14199587  0.92907958     0.02400
C798        C  0.08323392  0.15096256  0.93286614    -0.33400
H799        H  0.11792869  0.17879696  0.92617916     0.13500
H800        H  0.14122480  0.15620699  0.92560956     0.13300
H801        H  0.12568021  0.05301193  0.92694439     0.13200
H802        H  0.10237010  0.07561818  0.92748679     0.12200
C803        C  0.24460176  0.28662123  0.18707490     0.18500
C804        C  0.24399752  0.27791067  0.15935572    -0.10600
C805        C  0.25107911  0.29730490  0.13992594    -0.11400
C806        C  0.25887583  0.32564473  0.14795987     0.20100
C807        C  0.25957137  0.33421898  0.17570428    -0.13500
C808        C  0.25248367  0.31479675  0.19515744    -0.11800
C809        C  0.26579164  0.34619162  0.12754494     0.01100
C810        C  0.27069523  0.36232413  0.10882856    -0.31800
C811        C  0.23704282  0.26692452  0.20709280     0.02400
C812        C  0.23070222  0.25041772  0.22374380    -0.33400
H813        H  0.23797858  0.25625216  0.15271833     0.13500
H814        H  0.25039016  0.29034119  0.11859868     0.13300
H815        H  0.26550580  0.35604491  0.18229194     0.13200
H816        H  0.25307942  0.32189294  0.21646371     0.12200
C817        C  0.18512996  0.12626800  0.14365292     0.18500
C818        C  0.18764962  0.15302292  0.12529075    -0.10600
C819        C  0.18786082  0.14662037  0.09726178    -0.11400
C820        C  0.18554918  0.11342670  0.08746903     0.20100
C821        C  0.18283919  0.08673340  0.10581186    -0.13500
C822        C  0.18263242  0.09314029  0.13387032    -0.11800
C823        C  0.18672843  0.10636526  0.05878385     0.01100
C824        C  0.18854094  0.09919132  0.03516448    -0.31800
C825        C  0.18584989  0.13266228  0.17247591     0.02400
C826        C  0.18743956  0.13942835  0.19621593    -0.33400
H827        H  0.18968865  0.17868405  0.13266698     0.13500
H828        H  0.19006491  0.16738125  0.08328134     0.13300
H829        H  0.18113554  0.06090800  0.09845652     0.13200
H830        H  0.18076807  0.07222697  0.14790720     0.12200
C831        C  0.05683302  0.12201177  0.08856500     0.18500
C832        C  0.05036945  0.14491915  0.10631799    -0.10600
C833        C  0.05046629  0.13897401  0.13442057    -0.11400
C834        C  0.05704212  0.11008445  0.14498172     0.20100
C835        C  0.06366463  0.08735905  0.12728059    -0.13500
C836        C  0.06356640  0.09331462  0.09911781    -0.11800
C837        C  0.05630800  0.10285842  0.17375323     0.01100
C838        C  0.05475163  0.09594369  0.19752503    -0.31800
C839        C  0.05616672  0.12781816  0.05958361     0.02400
C840        C  0.05469893  0.13485906  0.03581519    -0.33400
H841        H  0.04510472  0.16714970  0.09839567     0.13500
H842        H  0.04523841  0.15660217  0.14786323     0.13300
H843        H  0.06871162  0.06481217  0.13520175     0.13200
H844        H  0.06857496  0.07538234  0.08559795     0.12200
C845        C  0.10782603  0.10511419  0.30785964     0.18500
C846        C  0.11014802  0.14054118  0.30973131    -0.10600
C847        C  0.12339062  0.15353002  0.30919618    -0.11400
C848        C  0.13445690  0.13123784  0.30679331     0.20100
C849        C  0.13215222  0.09576952  0.30535888    -0.13500
C850        C  0.11890798  0.08278032  0.30588009    -0.11800
C851        C  0.14810278  0.14459867  0.30437831     0.01100
C852        C  0.15970061  0.15347440  0.30048650    -0.31800
C853        C  0.09409080  0.09210280  0.30620087     0.02400
C854        C  0.08244798  0.08336433  0.30259996    -0.33400
H855        H  0.10170777  0.15817994  0.31106579     0.13500
H856        H  0.12497777  0.18097912  0.31016303     0.13300
H857        H  0.14058079  0.07819436  0.30333495     0.13200
H858        H  0.11730892  0.05538841  0.30421041     0.12200
C859        C  0.00817022  0.15889571  0.39925539     0.18500
C860        C  0.00327577  0.19165116  0.39268104    -0.10600
C861        C  0.99595325  0.21077891  0.41192170    -0.11400
C862        C  0.99341102  0.19737262  0.43796703     0.20100
C863        C  0.99827194  0.16458215  0.44452737    -0.13500
C864        C  0.00559740  0.14544054  0.42527352    -0.11800
C865        C  0.98590398  0.21725770  0.45793311     0.01100
C866        C  0.97975494  0.23396925  0.47473925    -0.31800
C867        C  0.01540577  0.13887802  0.37896896     0.02400
C868        C  0.02058541  0.12290973  0.36047142    -0.33400
H869        H  0.00507552  0.20236423  0.37263187     0.13500
H870        H  0.99226673  0.23601517  0.40646488     0.13300
H871        H  0.99639071  0.15379336  0.46451744     0.13200
H872        H  0.00920710  0.12011188  0.43065440     0.12200
C873        C  0.88410211  0.35395324  0.55859591     0.18500
C874        C  0.88143314  0.38916432  0.56116029    -0.10600
C875        C  0.86804909  0.40128487  0.56147678    -0.11400
C876        C  0.85717244  0.37834487  0.55924344     0.20100
C877        C  0.85983920  0.34309398  0.55706909    -0.13500
C878        C  0.87322103  0.33097700  0.55673987    -0.11800
C879        C  0.84334816  0.39087557  0.55760601     0.01100
C880        C  0.83168511  0.39955433  0.55404776    -0.31800
C881        C  0.89795950  0.34179754  0.55635691     0.02400
C882        C  0.90966165  0.33358297  0.55258822    -0.33400
H883        H  0.88970331  0.40731442  0.56242886     0.13500
H884        H  0.86619953  0.42859158  0.56297962     0.13300
H885        H  0.85157687  0.32501406  0.55513426     0.13200
H886        H  0.87507564  0.30374440  0.55455852     0.12200
C887        C  0.93910211  0.37133080  0.33924352     0.18500
C888        C  0.94382836  0.34070036  0.35066183    -0.10600
C889        C  0.94374297  0.33629159  0.37894282    -0.11400
C890        C  0.93894025  0.36248359  0.39594928     0.20100
C891        C  0.93428907  0.39321681  0.38455959    -0.13500
C892        C  0.93437413  0.39762878  0.35625079    -0.11800
C893        C  0.93896262  0.35764170  0.42502688     0.01100
C894        C  0.93972072  0.35119599  0.44900644    -0.31800
C895        C  0.93956112  0.37634119  0.31019347     0.02400
C896        C  0.94057287  0.38252296  0.28620183    -0.33400
H897        H  0.94762939  0.32033634  0.33773436     0.13500
H898        H  0.94744468  0.31250153  0.38755843     0.13300
H899        H  0.93063585  0.41371491  0.39752086     0.13200
H900        H  0.93082011  0.42155821  0.34763520     0.12200
C901        C  0.99659331  0.27498957  0.23307602     0.18500
C902        C  0.00656099  0.25537934  0.22016840    -0.10600
C903        C  0.00655741  0.21980022  0.22320918    -0.11400
C904        C  0.99651708  0.20377239  0.23890850     0.20100
C905        C  0.98647849  0.22336637  0.25159443    -0.13500
C906        C  0.98648233  0.25892274  0.24855585    -0.11800
C907        C  0.99785504  0.16809298  0.24510930     0.01100
C908        C  0.00233993  0.14125665  0.25292045    -0.31800
C909        C  0.99561601  0.31107492  0.22816078     0.02400
C910        C  0.99120541  0.33879914  0.22238672    -0.33400
H911        H  0.01426176  0.26752503  0.20774449     0.13500
H912        H  0.01452521  0.20482462  0.21376615     0.13300
H913        H  0.97883351  0.21126499  0.26418777     0.13200
H914        H  0.97856909  0.27391326  0.25817097     0.12200
C915        C  0.99737429  0.28968197  0.04129774     0.18500
C916        C  0.99913543  0.32533523  0.04298269    -0.10600
C917        C  0.99151362  0.34477441  0.06159741    -0.11400
C918        C  0.98201163  0.32882751  0.07870296     0.20100
C919        C  0.98009570  0.29327206  0.07668859    -0.13500
C920        C  0.98771312  0.27384651  0.05809047    -0.11800
C921        C  0.97497515  0.34835580  0.09960498     0.01100
C922        C  0.97015900  0.36351852  0.11892992    -0.31800
C923        C  0.00557249  0.26930002  0.02272593     0.02400
C924        C  0.01227996  0.25188038  0.00724795    -0.33400
H925        H  0.00652442  0.33804815  0.03017865     0.13500
H926        H  0.99321172  0.37215293  0.06297992     0.13300
H927        H  0.97288737  0.28045750  0.08984293     0.13200
H928        H  0.98618887  0.24637710  0.05707879     0.12200
C929        C  0.80545168  0.36910047  0.39681656     0.18500
C930        C  0.80371863  0.39656283  0.37870980    -0.10600
C931        C  0.80369351  0.39083076  0.35054973    -0.11400
C932        C  0.80540284  0.35758823  0.34032345     0.20100
C933        C  0.80730565  0.33017816  0.35839954    -0.13500
C934        C  0.80732582  0.33591046  0.38657449    -0.11800
C935        C  0.80445585  0.35126749  0.31144836     0.01100
C936        C  0.80282927  0.34480175  0.28762482    -0.31800
C937        C  0.80476932  0.37501516  0.42581172     0.02400
C938        C  0.80344057  0.38203360  0.44963983    -0.33400
H939        H  0.80219190  0.42232028  0.38637499     0.13500
H940        H  0.80212428  0.41219022  0.33679733     0.13300
H941        H  0.80854882  0.30432729  0.35072922     0.13200
H942        H  0.80860740  0.31444916  0.40034211     0.12200
C943        C  0.88413185  0.37766800  0.18109795     0.18500
C944        C  0.87343052  0.39925968  0.18874228    -0.10600
C945        C  0.86005917  0.38710330  0.18864203    -0.11400
C946        C  0.85723024  0.35318966  0.18091893     0.20100
C947        C  0.86792192  0.33166076  0.17311891    -0.13500
C948        C  0.88129759  0.34382380  0.17321405    -0.11800
C949        C  0.84343535  0.34040233  0.18195205     0.01100
C950        C  0.83172357  0.33169555  0.18469181    -0.31800
C951        C  0.89802839  0.38963162  0.18251067     0.02400
C952        C  0.90978090  0.39792887  0.18527267    -0.33400
H953        H  0.87543139  0.42537327  0.19508433     0.13500
H954        H  0.85194188  0.40404710  0.19487618     0.13300
H955        H  0.86594262  0.30536763  0.16724545     0.13200
H956        H  0.88944251  0.32671090  0.16744451     0.12200
C957        C  0.45363094  0.64942473  0.60516925     0.18500
C958        C  0.46425286  0.64009613  0.62250517    -0.10600
C959        C  0.46442372  0.60761893  0.63440853    -0.11400
C960        C  0.45400314  0.58429653  0.62894616     0.20100
C961        C  0.44328601  0.59368221  0.61182094    -0.13500
C962        C  0.44311688  0.62623072  0.59988279    -0.11800
C963        C  0.45434546  0.55102111  0.64135063     0.01100
C964        C  0.45518735  0.52447604  0.65368567    -0.31800
C965        C  0.45390920  0.68216193  0.59184081     0.02400
C966        C  0.45467231  0.70854558  0.57923607    -0.33400
H967        H  0.47245722  0.65779103  0.62659488     0.13500
H968        H  0.47271374  0.60061654  0.64775103     0.13300
H969        H  0.43514470  0.57585006  0.60760614     0.13200
H970        H  0.43488964  0.63318465  0.58637320     0.12200
C971        C  0.28909062  0.08732776  0.60305314     0.18500
C972        C  0.28307787  0.11514838  0.58964429    -0.10600
C973        C  0.28334085  0.14775076  0.60143212    -0.11400
C974        C  0.28964525  0.15270753  0.62666896     0.20100
C975        C  0.29580080  0.12497997  0.63996742    -0.13500
C976        C  0.29553711  0.09233775  0.62816640    -0.11800
C977        C  0.28925149  0.18580220  0.63953865     0.01100
C978        C  0.28850446  0.21235464  0.65197824    -0.31800
C979        C  0.28859816  0.05382460  0.59082869     0.02400
C980        C  0.28792763  0.02704115  0.57865246    -0.33400
H981        H  0.27810083  0.11157108  0.57017222     0.13500
H982        H  0.27850474  0.16897155  0.59104030     0.13300
H983        H  0.30065771  0.12852751  0.65956606     0.13200
H984        H  0.30025372  0.07103670  0.63867282     0.12200
C985        C  0.24954023  0.03805611  0.43468323     0.18500
C986        C  0.24841316  0.02724344  0.40751423    -0.10600
C987        C  0.24028710  0.04548204  0.38910388    -0.11400
C988        C  0.23317688  0.07472563  0.39765673     0.20100
C989        C  0.23420166  0.08538034  0.42488548    -0.13500
C990        C  0.24233099  0.06711549  0.44331575    -0.11800
C991        C  0.22549984  0.09460380  0.37803957     0.01100
C992        C  0.22031381  0.11078978  0.35972438    -0.31800
C993        C  0.25794770  0.01918505  0.45372078     0.02400
C994        C  0.26457833  0.00298368  0.47004195    -0.33400
H995        H  0.25386952  0.00481750  0.40050969     0.13500
H996        H  0.23967410  0.03700123  0.36811770     0.13300
H997        H  0.22884559  0.10799858  0.43180375     0.13200
H998        H  0.24305028  0.07576014  0.46424169     0.12200
C999        C  0.38490424  0.85422743  0.55801125     0.18500
C1000       C  0.38301862  0.88984672  0.55945701    -0.10600
C1001       C  0.36992799  0.90374527  0.55989566    -0.11400
C1002       C  0.35859932  0.88215723  0.55890098     0.20100
C1003       C  0.36048365  0.84652396  0.55772291    -0.13500
C1004       C  0.37357254  0.83262810  0.55726748    -0.11800
C1005       C  0.34507809  0.89633544  0.55729128     0.01100
C1006       C  0.33353873  0.90556225  0.55341584    -0.31800
C1007       C  0.39843951  0.84020468  0.55587071     0.02400
C1008       C  0.40998553  0.83087294  0.55215201    -0.33400
H1009       H  0.39166825  0.90689780  0.55980112     0.13500
H1010       H  0.36865205  0.93131535  0.56053324     0.13300
H1011       H  0.35183543  0.82951338  0.55666800     0.13200
H1012       H  0.37484697  0.80509879  0.55590340     0.12200
C1013       C  0.45515638  0.15111775  0.10424756     0.18500
C1014       C  0.46075302  0.12283016  0.09068056    -0.10600
C1015       C  0.46057082  0.09046080  0.10292123    -0.11400
C1016       C  0.45476441  0.08624672  0.12875378     0.20100
C1017       C  0.44909120  0.11448307  0.14224097    -0.13500
C1018       C  0.44927506  0.14685021  0.13000357    -0.11800
C1019       C  0.45501311  0.05332150  0.14192494     0.01100
C1020       C  0.45547919  0.02693802  0.15465147    -0.31800
C1021       C  0.45542664  0.18437336  0.09157958     0.02400
C1022       C  0.45579172  0.21115819  0.07935865    -0.33400
H1023       H  0.46530153  0.12583739  0.07071897     0.13500
H1024       H  0.46503062  0.06883449  0.09236311     0.13300
H1025       H  0.44462172  0.11151575  0.16227841     0.13200
H1026       H  0.44489521  0.16851575  0.14064281     0.12200
C1027       C  0.43422916  0.86382173  0.39612128     0.18500
C1028       C  0.44363851  0.88643743  0.38462906    -0.10600
C1029       C  0.44367838  0.89228086  0.35654005    -0.11400
C1030       C  0.43432392  0.87552525  0.33972777     0.20100
C1031       C  0.42479335  0.85315269  0.35121441    -0.13500
C1032       C  0.42475631  0.84728377  0.37938945    -0.11800
C1033       C  0.43480411  0.88118663  0.31073719     0.01100
C1034       C  0.43636412  0.88803017  0.28696574    -0.31800
C1035       C  0.43494591  0.85609302  0.42476396     0.02400
C1036       C  0.43671759  0.84829417  0.44826552    -0.33400
H1037       H  0.45107763  0.89913908  0.39732723     0.13500
H1038       H  0.45110592  0.90958800  0.34788010     0.13300
H1039       H  0.41752363  0.84001977  0.33840836     0.13200
H1040       H  0.41750273  0.82952142  0.38804949     0.12200
C1041       C  0.28754898  0.58342120  0.10444886     0.18500
C1042       C  0.27678552  0.59586412  0.12018263    -0.10600
C1043       C  0.27752414  0.62855272  0.13174575    -0.11400
C1044       C  0.28900411  0.64899946  0.12756901     0.20100
C1045       C  0.29979424  0.63654139  0.11190173    -0.13500
C1046       C  0.29905427  0.60381998  0.10032484    -0.11800
C1047       C  0.28969059  0.68239010  0.13991994     0.01100
C1048       C  0.28943604  0.70916013  0.15215805    -0.31800
C1049       C  0.28660381  0.55032304  0.09166217     0.02400
C1050       C  0.28585814  0.52377751  0.07918939    -0.33400
H1051       H  0.26781322  0.58040222  0.12338165     0.13500
H1052       H  0.26914511  0.63790607  0.14391950     0.13300
H1053       H  0.30873826  0.65207928  0.10862657     0.13200
H1054       H  0.30740409  0.59450005  0.08805806     0.12200
C1055       C  0.24714163  0.95427825  0.23719328     0.18500
C1056       C  0.24088288  0.96664854  0.26078491    -0.10600
C1057       C  0.24015055  0.00193936  0.26530608    -0.11400
C1058       C  0.24576342  0.02486168  0.24637296     0.20100
C1059       C  0.25205242  0.01246610  0.22283037    -0.13500
C1060       C  0.25278055  0.97720121  0.21830826    -0.11800
C1061       C  0.24383956  0.06093067  0.25023940     0.01100
C1062       C  0.23922874  0.08860029  0.25560610    -0.31800
C1063       C  0.24896505  0.91824274  0.23301705     0.02400
C1064       C  0.25365032  0.89097730  0.22672103    -0.33400
H1065       H  0.23666222  0.94911118  0.27565950     0.13500
H1066       H  0.23509943  0.01140141  0.28342841     0.13300
H1067       H  0.25626188  0.02998650  0.20792965     0.13200
H1068       H  0.25781681  0.96775528  0.20016196     0.12200
C1069       C  0.24465525  0.94404729  0.04489737     0.18500
C1070       C  0.24670325  0.90884404  0.04064174    -0.10600
C1071       C  0.25438815  0.88955190  0.05920400    -0.11400
C1072       C  0.26015370  0.90528550  0.08216434     0.20100
C1073       C  0.25814698  0.94051677  0.08631473    -0.13500
C1074       C  0.25046912  0.95978319  0.06777761    -0.11800
C1075       C  0.26758000  0.88526280  0.10215161     0.01100
C1076       C  0.27286475  0.86961339  0.12069162    -0.31800
C1077       C  0.23661998  0.96401263  0.02589725     0.02400
C1078       C  0.23013610  0.98104902  0.00986990    -0.33400
H1079       H  0.24229868  0.89627059  0.02307082     0.13500
H1080       H  0.25573741  0.86234034  0.05576067     0.13300
H1081       H  0.26242759  0.95306021  0.10402397     0.13200
H1082       H  0.24900531  0.98692794  0.07138440     0.12200
C1083       C  0.30791404  0.86266591  0.33797898     0.18500
C1084       C  0.32019872  0.86069348  0.35224343    -0.10600
C1085       C  0.32047091  0.86608877  0.38051283    -0.11400
C1086       C  0.30845195  0.87337467  0.39461132     0.20100
C1087       C  0.29619506  0.87511466  0.38032614    -0.13500
C1088       C  0.29592563  0.86976675  0.35215957    -0.11800
C1089       C  0.30852840  0.88003685  0.42354234     0.01100
C1090       C  0.30721984  0.88741018  0.44730901    -0.31800
C1091       C  0.30738767  0.85650447  0.30898396     0.02400
C1092       C  0.30590453  0.84977549  0.28513154    -0.33400
H1093       H  0.32952933  0.85499564  0.34154814     0.13500
H1094       H  0.33001780  0.86471516  0.39131194     0.13300
H1095       H  0.28683965  0.88076617  0.39096430     0.13200
H1096       H  0.28635570  0.87114428  0.34143138     0.12200
C1097       C  0.38470879  0.88372156  0.17358878     0.18500
C1098       C  0.38331842  0.84810628  0.17648625    -0.10600
C1099       C  0.37046640  0.83293876  0.17602997    -0.11400
C1100       C  0.35890052  0.85327221  0.17262903     0.20100
C1101       C  0.36031693  0.88877971  0.16902892    -0.13500
C1102       C  0.37317136  0.90395803  0.16952358    -0.11800
C1103       C  0.34554673  0.83846878  0.17517481     0.01100
C1104       C  0.33406737  0.82938172  0.17977304    -0.31800
C1105       C  0.39789883  0.89929993  0.17656916     0.02400
C1106       C  0.40930064  0.90882089  0.18133812    -0.33400
H1107       H  0.39214537  0.83217093  0.17979301     0.13500
H1108       H  0.36953346  0.80553283  0.17906021     0.13300
H1109       H  0.35145666  0.90484330  0.16660092     0.13200
H1110       H  0.37407510  0.93150381  0.16740907     0.12200
C1111       C  0.49782686  0.79129639  0.04752232     0.18500
C1112       C  0.50131810  0.82560026  0.05243111    -0.10600
C1113       C  0.49378403  0.84541804  0.07086706    -0.11400
C1114       C  0.48264425  0.83121242  0.08455780     0.20100
C1115       C  0.47908552  0.79696509  0.07952496    -0.13500
C1116       C  0.48662451  0.77713228  0.06107236    -0.11800
C1117       C  0.47542043  0.85109790  0.10489583     0.01100
C1118       C  0.47038245  0.86681895  0.12365471    -0.31800
C1119       C  0.50576068  0.77075023  0.02869970     0.02400
C1120       C  0.51230518  0.75379092  0.01268381    -0.33400
H1121       H  0.50992691  0.83695930  0.04216415     0.13500
H1122       H  0.49675238  0.87171731  0.07467902     0.13300
H1123       H  0.47059110  0.78548309  0.09008927     0.13200
H1124       H  0.48377509  0.75068808  0.05754013     0.12200
C1125       C  0.49606529  0.52994504  0.98738488     0.18500
C1126       C  0.49884298  0.50898346  0.96483156    -0.10600
C1127       C  0.49829948  0.47335850  0.96738411    -0.11400
C1128       C  0.49510301  0.45868006  0.99258872     0.20100
C1129       C  0.49230457  0.47967988  0.01510199    -0.13500
C1130       C  0.49284031  0.51527271  0.01254689    -0.11800
C1131       C  0.49320110  0.42240755  0.99514402     0.01100
C1132       C  0.48860304  0.39477708  0.00071233    -0.31800
C1133       C  0.49818770  0.56611728  0.98516664     0.02400
C1134       C  0.50304162  0.59368693  0.98052119    -0.33400
H1135       H  0.50158992  0.52020124  0.94538569     0.13500
H1136       H  0.50026874  0.45735734  0.94976980     0.13300
H1137       H  0.48960370  0.46849580  0.03458454     0.13200
H1138       H  0.49091047  0.53126759  0.03018489     0.12200
C1139       C  0.49387508  0.53951679  0.79763750     0.18500
C1140       C  0.50214043  0.52327734  0.81699076    -0.10600
C1141       C  0.50923590  0.54267357  0.83642675    -0.11400
C1142       C  0.50817704  0.57857157  0.83669465     0.20100
C1143       C  0.49995561  0.59478128  0.81726611    -0.13500
C1144       C  0.49286230  0.57539522  0.79784370    -0.11800
C1145       C  0.51508687  0.59863143  0.85744140     0.01100
C1146       C  0.52014783  0.61495130  0.87589422    -0.31800
C1147       C  0.48640283  0.51945947  0.77772498     0.02400
C1148       C  0.48023120  0.50259500  0.76105677    -0.33400
H1149       H  0.50304800  0.49560529  0.81716235     0.13500
H1150       H  0.51546202  0.52966049  0.85134906     0.13300
H1151       H  0.49894349  0.62242886  0.81724224     0.13200
H1152       H  0.48653435  0.58838814  0.78308619     0.12200
C1153       C  0.63368510  0.60440711  0.92883348     0.18500
C1154       C  0.63174369  0.64002659  0.92755512    -0.10600
C1155       C  0.61862359  0.65378651  0.92721483    -0.11400
C1156       C  0.60733084  0.63204866  0.92812172     0.20100
C1157       C  0.60928172  0.59644038  0.92909867    -0.13500
C1158       C  0.62239023  0.58269325  0.92945342    -0.11800
C1159       C  0.59376235  0.64597652  0.92961263     0.01100
C1160       C  0.58216330  0.65501252  0.93308388    -0.31800
C1161       C  0.64722792  0.59040646  0.93084629     0.02400
C1162       C  0.65876822  0.58082326  0.93419101    -0.33400
H1163       H  0.64036620  0.65716743  0.92725466     0.13500
H1164       H  0.61729687  0.68134527  0.92668232     0.13300
H1165       H  0.60066489  0.57931595  0.93003548     0.13200
H1166       H  0.62370894  0.55516490  0.93063570     0.12200
C1167       C  0.74493776  0.44825490  0.04409998     0.18500
C1168       C  0.75310446  0.42047914  0.03629401    -0.10600
C1169       C  0.76045832  0.40203895  0.05591482    -0.11400
C1170       C  0.75974525  0.41123106  0.08353523     0.20100
C1171       C  0.75178244  0.43942371  0.09123705    -0.13500
C1172       C  0.74443587  0.45783444  0.07164165    -0.11800
C1173       C  0.76659037  0.39099534  0.10419755     0.01100
C1174       C  0.77124074  0.37458504  0.12299950    -0.31800
C1175       C  0.73689664  0.46653054  0.02406145     0.02400
C1176       C  0.73014929  0.48214222  0.00756112    -0.33400
H1177       H  0.75364812  0.41278846  0.01510327     0.13500
H1178       H  0.76652941  0.38032309  0.04959508     0.13300
H1179       H  0.75108451  0.44686515  0.11247003     0.13200
H1180       H  0.73822166  0.47926356  0.07803244     0.12200
C1181       C  0.49726952  0.70858945  0.24601760     0.18500
C1182       C  0.49201804  0.72846358  0.26730371    -0.10600
C1183       C  0.49125053  0.76401453  0.26456821    -0.11400
C1184       C  0.49587790  0.77975214  0.24066882     0.20100
C1185       C  0.50113948  0.75987312  0.21938906    -0.13500
C1186       C  0.50190651  0.72432284  0.22212412    -0.11800
C1187       C  0.49346086  0.81551429  0.23643469     0.01100
C1188       C  0.48861880  0.84262175  0.23025366    -0.31800
C1189       C  0.49960621  0.67278692  0.25016724     0.02400
C1190       C  0.50436208  0.64545699  0.25596822    -0.33400
H1191       H  0.48866589  0.71652406  0.28607478     0.13500
H1192       H  0.48690529  0.77916077  0.28089148     0.13300
H1193       H  0.50447785  0.77180346  0.20060416     0.13200
H1194       H  0.50623752  0.70916950  0.20578831     0.12200
C1195       C  0.49340532  0.69350902  0.43605217     0.18500
C1196       C  0.50378271  0.70909200  0.42091966    -0.10600
C1197       C  0.51148677  0.68981292  0.40238328    -0.11400
C1198       C  0.50892716  0.65471416  0.39884672     0.20100
C1199       C  0.49854079  0.63916143  0.41395178    -0.13500
C1200       C  0.49083819  0.65843336  0.43247689    -0.11800
C1201       C  0.51645730  0.63501849  0.37884373     0.01100
C1202       C  0.52175771  0.61904027  0.36051905    -0.31800
C1203       C  0.48548942  0.71343355  0.45530591     0.02400
C1204       C  0.47915766  0.73037088  0.47166736    -0.33400
H1205       H  0.50589685  0.73614913  0.42339600     0.13500
H1206       H  0.51937500  0.70233304  0.39069916     0.13300
H1207       H  0.49633670  0.61217999  0.41128335     0.13200
H1208       H  0.48286096  0.64597891  0.44395702     0.12200
C1209       C  0.48419448  0.40731243  0.14686708     0.18500
C1210       C  0.49500243  0.42832702  0.13874506    -0.10600
C1211       C  0.50222622  0.44747916  0.15806126    -0.11400
C1212       C  0.49873104  0.44584653  0.18574484     0.20100
C1213       C  0.48801550  0.42455678  0.19393241    -0.13500
C1214       C  0.48078173  0.40537705  0.17459004    -0.11800
C1215       C  0.50602271  0.46624859  0.20562358     0.01100
C1216       C  0.51208900  0.48341001  0.22220933    -0.31800
C1217       C  0.47674126  0.38790381  0.12659971     0.02400
C1218       C  0.47147646  0.37258069  0.10789933    -0.33400
H1219       H  0.49781288  0.43002119  0.11743636     0.13500
H1220       H  0.51048899  0.46369989  0.15137481     0.13300
H1221       H  0.48520624  0.42292463  0.21524001     0.13200
H1222       H  0.47250747  0.38918172  0.18124347     0.12200
C1223       C  0.55838381  0.62504746  0.08937140     0.18500
C1224       C  0.56659709  0.59937196  0.10050177    -0.10600
C1225       C  0.56637853  0.59328475  0.12859230    -0.11400
C1226       C  0.55796355  0.61287502  0.14552480     0.20100
C1227       C  0.54984755  0.63870878  0.13437937    -0.13500
C1228       C  0.55006897  0.64479049  0.10635613    -0.11800
C1229       C  0.55702865  0.60518399  0.17405746     0.01100
C1230       C  0.55535545  0.59722822  0.19750499    -0.31800
C1231       C  0.55802347  0.63083388  0.06051264     0.02400
C1232       C  0.55628751  0.63804963  0.03694363    -0.33400
H1233       H  0.57300838  0.58387128  0.08749045     0.13500
H1234       H  0.57259641  0.57303444  0.13704602     0.13300
H1235       H  0.54321483  0.65377036  0.14727658     0.13200
H1236       H  0.54363265  0.66459199  0.09787492     0.12200
C1237       C  0.68638159  0.62488143  0.14461445     0.18500
C1238       C  0.69702615  0.63660154  0.12819730    -0.10600
C1239       C  0.69706742  0.62966857  0.10026028    -0.11400
C1240       C  0.68644534  0.61102639  0.08854546     0.20100
C1241       C  0.67573916  0.59944742  0.10491334    -0.13500
C1242       C  0.67569793  0.60639742  0.13292180    -0.11800
C1243       C  0.68685583  0.60284493  0.05994401     0.01100
C1244       C  0.68805055  0.59508709  0.03627134    -0.31800
C1245       C  0.68668920  0.63159002  0.17344323     0.02400
C1246       C  0.68815281  0.63861120  0.19718203    -0.33400
H1247       H  0.70534584  0.65087452  0.13704073     0.13500
H1248       H  0.70543297  0.63858214  0.08784367     0.13300
H1249       H  0.66751055  0.58484379  0.09607980     0.13200
H1250       H  0.66742496  0.59717669  0.14544117     0.12200
C1251       C  0.60860442  0.60006716  0.30277467     0.18500
C1252       C  0.61975694  0.57894425  0.30830438    -0.10600
C1253       C  0.63288850  0.59269575  0.30853400    -0.11400
C1254       C  0.63497510  0.62768113  0.30324018     0.20100
C1255       C  0.62381579  0.64874389  0.29775764    -0.13500
C1256       C  0.61070773  0.63501928  0.29753403    -0.11800
C1257       C  0.64857308  0.64154456  0.30213923     0.01100
C1258       C  0.66014094  0.65125369  0.29938306    -0.31800
C1259       C  0.59501750  0.58616231  0.30166712     0.02400
C1260       C  0.58331412  0.57756382  0.29897279    -0.33400
H1261       H  0.61832216  0.55185623  0.31221201     0.13500
H1262       H  0.64141581  0.57600127  0.31255715     0.13300
H1263       H  0.62525335  0.67571763  0.29337800     0.13200
H1264       H  0.60221155  0.65163029  0.29304456     0.12200
C1265       C  0.74924404  0.53942288  0.43705598     0.18500
C1266       C  0.73949677  0.52335389  0.42068001    -0.10600
C1267       C  0.73173330  0.54257450  0.40228815    -0.11400
C1268       C  0.73360808  0.57810377  0.40013223     0.20100
C1269       C  0.74329228  0.59424340  0.41665457    -0.13500
C1270       C  0.75106205  0.57500438  0.43506738    -0.11800
C1271       C  0.72620532  0.59752024  0.37984232     0.01100
C1272       C  0.72103005  0.61299794  0.36114748    -0.31800
C1273       C  0.75725461  0.51938681  0.45596820     0.02400
C1274       C  0.76351237  0.50214347  0.47217136    -0.33400
H1275       H  0.73794866  0.49591448  0.42200526     0.13500
H1276       H  0.72438421  0.52966972  0.38953360     0.13300
H1277       H  0.74494794  0.62162227  0.41508896     0.13200
H1278       H  0.75852625  0.58782412  0.44760484     0.12200
C1279       C  0.74534168  0.52715411  0.24600559     0.18500
C1280       C  0.74632402  0.50549228  0.26869871    -0.10600
C1281       C  0.74597694  0.46997398  0.26527041    -0.11400
C1282       C  0.74448038  0.45604355  0.23915630     0.20100
C1283       C  0.74335526  0.47772392  0.21649007    -0.13500
C1284       C  0.74370505  0.51324518  0.21992013    -0.11800
C1285       C  0.74623643  0.41996531  0.23495686     0.01100
C1286       C  0.75094422  0.39267259  0.22874183    -0.31800
C1287       C  0.74413165  0.56337166  0.25011397     0.02400
C1288       C  0.73984779  0.59114591  0.25614934    -0.33400
H1289       H  0.74726297  0.51607797  0.28903379     0.13500
H1290       H  0.74711809  0.45342826  0.28285633     0.13300
H1291       H  0.74246445  0.46715067  0.19614190     0.13200
H1292       H  0.74261466  0.52980533  0.20232834     0.12200
C1293       C  0.53678861  0.39845262  0.35325872     0.18500
C1294       C  0.54893409  0.38118989  0.35852733    -0.10600
C1295       C  0.54869614  0.34876912  0.37059387    -0.11400
C1296       C  0.53631311  0.33349435  0.37732782     0.20100
C1297       C  0.52415751  0.35074857  0.37206683    -0.13500
C1298       C  0.52439541  0.38317877  0.35999514    -0.11800
C1299       C  0.53611935  0.30071250  0.39056143     0.01100
C1300       C  0.53591229  0.27435075  0.40325798    -0.31800
C1301       C  0.53700739  0.43133937  0.34016736     0.02400
C1302       C  0.53687636  0.45796253  0.32780036    -0.33400
H1303       H  0.55856076  0.39274664  0.35326674     0.13500
H1304       H  0.55814456  0.33567951  0.37475239     0.13300
H1305       H  0.51453228  0.33920524  0.37736748     0.13200
H1306       H  0.51494691  0.39629036  0.35587144     0.12200
C1307       C  0.48428183  0.33131543  0.58349009     0.18500
C1308       C  0.47968395  0.32824581  0.55656084    -0.10600
C1309       C  0.48696408  0.30847829  0.53767513    -0.11400
C1310       C  0.49889088  0.29165002  0.54558992     0.20100
C1311       C  0.50349319  0.29482384  0.57248090    -0.13500
C1312       C  0.49622806  0.31455127  0.59132984    -0.11800
C1313       C  0.50633517  0.27091367  0.52626994     0.01100
C1314       C  0.51245829  0.25330663  0.51013054    -0.31800
C1315       C  0.47684616  0.35129706  0.60335747     0.02400
C1316       C  0.47171700  0.36676080  0.62210456    -0.33400
H1317       H  0.47047609  0.34101438  0.55018769     0.13500
H1318       H  0.48327939  0.30623622  0.51696523     0.13300
H1319       H  0.51267544  0.28196902  0.57891282     0.13200
H1320       H  0.49990726  0.31665340  0.61205637     0.12200
C1321       C  0.49331247  0.04007613  0.29859984     0.18500
C1322       C  0.49620818  0.02690865  0.32453409    -0.10600
C1323       C  0.50380418  0.04620134  0.34311598    -0.11400
C1324       C  0.50860568  0.07880288  0.33594498     0.20100
C1325       C  0.50574186  0.09198877  0.30998305    -0.13500
C1326       C  0.49813836  0.07265907  0.29136784    -0.11800
C1327       C  0.51591139  0.09900354  0.35580160     0.01100
C1328       C  0.52096983  0.11461238  0.37450801    -0.31800
C1329       C  0.48545094  0.02012462  0.27944441     0.02400
C1330       C  0.47907640  0.00333866  0.26315745    -0.33400
H1331       H  0.49255549  0.00180403  0.33042830     0.13500
H1332       H  0.50584642  0.03578871  0.36317407     0.13300
H1333       H  0.50929056  0.11723103  0.30421406     0.13200
H1334       H  0.49598046  0.08316758  0.27139531     0.12200
C1335       C  0.49552629  0.95523746  0.49359540     0.18500
C1336       C  0.49493445  0.97676269  0.51644153    -0.10600
C1337       C  0.49509454  0.01228856  0.51315565    -0.11400
C1338       C  0.49571745  0.02639751  0.48698128     0.20100
C1339       C  0.49624431  0.00489434  0.46410038    -0.13500
C1340       C  0.49607166  0.96933078  0.46738897    -0.11800
C1341       C  0.49774122  0.06250028  0.48361110     0.01100
C1342       C  0.50250753  0.09012932  0.47870779    -0.31800
C1343       C  0.49383382  0.91905363  0.49726391     0.02400
C1344       C  0.48935650  0.89150316  0.50342761    -0.33400
H1345       H  0.49423294  0.96605228  0.53677918     0.13500
H1346       H  0.49493879  0.02869824  0.53097533     0.13300
H1347       H  0.49699141  0.01563076  0.44377812     0.13200
H1348       H  0.49626117  0.95289993  0.44958464     0.12200
C1349       C  0.70282136  0.83524093  0.35401051     0.18500
C1350       C  0.69655019  0.83979200  0.37934828    -0.10600
C1351       C  0.69606700  0.87235607  0.39115568    -0.11400
C1352       C  0.70183519  0.90040824  0.37761669     0.20100
C1353       C  0.70788010  0.89597235  0.35205253    -0.13500
C1354       C  0.70836184  0.86342119  0.34024796    -0.11800
C1355       C  0.70225282  0.93324307  0.39071344     0.01100
C1356       C  0.70310804  0.95959483  0.40329654    -0.31800
C1357       C  0.70372412  0.80170545  0.34213270     0.02400
C1358       C  0.70471835  0.77465654  0.33052746    -0.33400
H1359       H  0.69220306  0.81816190  0.39008393     0.13500
H1360       H  0.69141409  0.87556234  0.41100365     0.13300
H1361       H  0.71240879  0.91751042  0.34150098     0.13200
H1362       H  0.71319638  0.86014245  0.32058395     0.12200
C1363       C  0.60662186  0.12778675  0.42524221     0.18500
C1364       C  0.60830145  0.09205384  0.42537557    -0.10600
C1365       C  0.62130971  0.07769614  0.42487479    -0.11400
C1366       C  0.63273196  0.09898374  0.42421566     0.20100
C1367       C  0.63103878  0.13467744  0.42363059    -0.13500
C1368       C  0.61804407  0.14902171  0.42416523    -0.11800
C1369       C  0.64620355  0.08475653  0.42614932     0.01100
C1370       C  0.65782295  0.07645816  0.43016317    -0.31800
C1371       C  0.59322711  0.14240973  0.42777418     0.02400
C1372       C  0.58177997  0.15213296  0.43190683    -0.33400
H1373       H  0.59956685  0.07532471  0.42641227     0.13500
H1374       H  0.62245473  0.05009130  0.42558209     0.13300
H1375       H  0.63977908  0.15143732  0.42336891     0.13200
H1376       H  0.61692166  0.17664564  0.42426559     0.12200
C1377       C  0.74582979  0.19470481  0.29316402     0.18500
C1378       C  0.74482805  0.20520121  0.32043913    -0.10600
C1379       C  0.73730598  0.18588178  0.33922414    -0.11400
C1380       C  0.73065204  0.15582048  0.33100999     0.20100
C1381       C  0.73153308  0.14544632  0.30366010    -0.13500
C1382       C  0.73906609  0.16481565  0.28483322    -0.11800
C1383       C  0.72341809  0.13534571  0.35104676     0.01100
C1384       C  0.71840506  0.11958880  0.36986310    -0.31800
C1385       C  0.75386212  0.21442861  0.27389988     0.02400
C1386       C  0.76049337  0.23117779  0.25785715    -0.33400
H1387       H  0.74995063  0.22820338  0.32726232     0.13500
H1388       H  0.73678745  0.19423481  0.36025656     0.13300
H1389       H  0.72651188  0.12226082  0.29693384     0.13200
H1390       H  0.73970128  0.15633855  0.26384912     0.12200
C1391       C  0.74311259  0.20880483  0.48742556     0.18500
C1392       C  0.73881228  0.22322800  0.51208707    -0.10600
C1393       C  0.73935650  0.25867820  0.51578573    -0.11400
C1394       C  0.74405231  0.27980018  0.49472226     0.20100
C1395       C  0.74831721  0.26536000  0.47002932    -0.13500
C1396       C  0.74777085  0.22990813  0.46632945    -0.11800
C1397       C  0.74633252  0.31548039  0.49988860     0.01100
C1398       C  0.75119292  0.34238963  0.50664174    -0.31800
C1399       C  0.74101833  0.17306445  0.48241556     0.02400
C1400       C  0.73640130  0.14582974  0.47590288    -0.33400
H1401       H  0.73492565  0.20712817  0.52830317     0.13500
H1402       H  0.73630218  0.26957475  0.53515739     0.13300
H1403       H  0.75222827  0.28143876  0.45382626     0.13200
H1404       H  0.75084539  0.21898738  0.44697749     0.12200
C1405       C  0.53728819  0.90185252  0.85781141     0.18500
C1406       C  0.54815012  0.89304904  0.87474511    -0.10600
C1407       C  0.54862157  0.86056542  0.88670288    -0.11400
C1408       C  0.53825931  0.83689978  0.88160734     0.20100
C1409       C  0.52741283  0.84576677  0.86470083    -0.13500
C1410       C  0.52693821  0.87818839  0.85278147    -0.11800
C1411       C  0.53840276  0.80399911  0.89454318     0.01100
C1412       C  0.53783735  0.77732991  0.90672587    -0.31800
C1413       C  0.53690879  0.93461813  0.84469234     0.02400
C1414       C  0.53626881  0.96060337  0.83163132    -0.33400
H1415       H  0.55622856  0.91118818  0.87861184     0.13500
H1416       H  0.55700370  0.85394865  0.89993043     0.13300
H1417       H  0.51931740  0.82767549  0.86082415     0.13200
H1418       H  0.51853694  0.88477278  0.83958829     0.12200
C1419       C  0.49652901  0.27734238  0.73683399     0.18500
C1420       C  0.49836524  0.26359004  0.76288914    -0.10600
C1421       C  0.49857658  0.22810940  0.76640740    -0.11400
C1422       C  0.49681312  0.20636499  0.74393841     0.20100
C1423       C  0.49503537  0.22010011  0.71786982    -0.13500
C1424       C  0.49482461  0.25558267  0.71435043    -0.11800
C1425       C  0.49856130  0.17027075  0.74749890     0.01100
C1426       C  0.50315638  0.14281328  0.75337921    -0.31800
C1427       C  0.49457814  0.31341382  0.73335509     0.02400
C1428       C  0.48985036  0.34086583  0.72780513    -0.33400
H1429       H  0.49945182  0.28022590  0.78044164     0.13500
H1430       H  0.50023539  0.21760146  0.78658607     0.13300
H1431       H  0.49393297  0.20345164  0.70032824     0.13200
H1432       H  0.49315038  0.26608081  0.69417607     0.12200
C1433       C  0.50868987  0.15827711  0.89802666     0.18500
C1434       C  0.50906015  0.15027956  0.92590986    -0.10600
C1435       C  0.50128792  0.16920290  0.94461371    -0.11400
C1436       C  0.49304360  0.19626448  0.93561284     0.20100
C1437       C  0.49277595  0.20439955  0.90777602    -0.13500
C1438       C  0.50053810  0.18552479  0.88910985    -0.11800
C1439       C  0.48494248  0.21579704  0.95484342     0.01100
C1440       C  0.47845186  0.23266482  0.97101459    -0.31800
C1441       C  0.51616569  0.13800690  0.87825738     0.02400
C1442       C  0.52127908  0.12187603  0.85977473    -0.33400
H1443       H  0.51525531  0.12927092  0.93317067     0.13500
H1444       H  0.50165670  0.16262387  0.96604480     0.13300
H1445       H  0.48651258  0.22524842  0.90045432     0.13200
H1446       H  0.50008692  0.19200173  0.86766152     0.12200
C1447       C  0.55787891  0.12710713  0.58968152     0.18500
C1448       C  0.55575350  0.15286580  0.60913714    -0.10600
C1449       C  0.55603759  0.14488840  0.63692301    -0.11400
C1450       C  0.55844856  0.11113275  0.64534733     0.20100
C1451       C  0.56074724  0.08547679  0.62590372    -0.13500
C1452       C  0.56046344  0.09345230  0.59812380    -0.11800
C1453       C  0.55762418  0.10237214  0.67376704     0.01100
C1454       C  0.55580634  0.09435715  0.69719972    -0.31800
C1455       C  0.55673953  0.13487752  0.56111495     0.02400
C1456       C  0.55495618  0.14175249  0.53744039    -0.33400
H1457       H  0.55364644  0.17893532  0.60282388     0.13500
H1458       H  0.55411815  0.16484992  0.65178845     0.13300
H1459       H  0.56249069  0.05923000  0.63219907     0.13200
H1460       H  0.56202010  0.07330826  0.58324491     0.12200
C1461       C  0.49789680  0.94222880  0.68895491     0.18500
C1462       C  0.50481239  0.91841630  0.67269231    -0.10600
C1463       C  0.49774809  0.89819763  0.65383831    -0.11400
C1464       C  0.48367277  0.90150645  0.65103365     0.20100
C1465       C  0.47670982  0.92500841  0.66755179    -0.13500
C1466       C  0.48378688  0.94525376  0.68644901    -0.11800
C1467       C  0.47662423  0.88208599  0.63018988     0.01100
C1468       C  0.47172984  0.86691006  0.61100684    -0.31800
C1469       C  0.50531793  0.96368299  0.70791060     0.02400
C1470       C  0.51163126  0.98135043  0.72376465    -0.33400
H1471       H  0.51569590  0.91571173  0.67437883     0.13500
H1472       H  0.50329639  0.88031734  0.64116700     0.13300
H1473       H  0.46585301  0.92802706  0.66557345     0.13200
H1474       H  0.47828154  0.96348298  0.69887814     0.12200
C1475       C  0.70257584  0.39637960  0.87947549     0.18500
C1476       C  0.69045021  0.37885328  0.87446513    -0.10600
C1477       C  0.69075527  0.34545512  0.86410175    -0.11400
C1478       C  0.70318289  0.32944433  0.85882589     0.20100
C1479       C  0.71529795  0.34700493  0.86381845    -0.13500
C1480       C  0.71499328  0.38037105  0.87415711    -0.11800
C1481       C  0.70352844  0.29585411  0.84678088     0.01100
C1482       C  0.70406240  0.26935044  0.83422599    -0.31800
C1483       C  0.70237814  0.43008514  0.89132042     0.02400
C1484       C  0.70286659  0.45707373  0.90320797    -0.33400
H1485       H  0.68079372  0.39092762  0.87865968     0.13500
H1486       H  0.68132707  0.33220804  0.86006944     0.13300
H1487       H  0.72496141  0.33498600  0.85957444     0.13200
H1488       H  0.72442864  0.39362968  0.87811320     0.12200
C1489       C  0.68288707  0.11501710  0.58646274     0.18500
C1490       C  0.69120953  0.14075187  0.59717884    -0.10600
C1491       C  0.69125837  0.14727484  0.62519118    -0.11400
C1492       C  0.68300600  0.12807772  0.64270504     0.20100
C1493       C  0.67455319  0.10255777  0.63199969    -0.13500
C1494       C  0.67450289  0.09602174  0.60391623    -0.11800
C1495       C  0.68371564  0.13396217  0.67165734     0.01100
C1496       C  0.68546910  0.14009050  0.69549833    -0.31800
C1497       C  0.68358404  0.10694684  0.55783715     0.02400
C1498       C  0.68519382  0.09905536  0.53427696    -0.33400
H1499       H  0.69781525  0.15540461  0.58393640     0.13500
H1500       H  0.69788155  0.16695323  0.63324948     0.13300
H1501       H  0.66817415  0.08744228  0.64535632     0.13200
H1502       H  0.66810446  0.07586309  0.59588411     0.12200
C1503       C  0.60762404  0.09704765  0.80792847     0.18500
C1504       C  0.61036620  0.12827728  0.82098667    -0.10600
C1505       C  0.62346970  0.14206585  0.82055172    -0.11400
C1506       C  0.63393211  0.12474790  0.80702708     0.20100
C1507       C  0.63122693  0.09326878  0.79429258    -0.13500
C1508       C  0.61812887  0.07949744  0.79471560    -0.11800
C1509       C  0.64734083  0.13950473  0.80528243     0.01100
C1510       C  0.65880635  0.14936822  0.80155127    -0.31800
C1511       C  0.59386909  0.08457392  0.80621428     0.02400
C1512       C  0.58215940  0.07690689  0.80241747    -0.33400
H1513       H  0.60231920  0.14230260  0.83102123     0.13500
H1514       H  0.62538471  0.16645450  0.83037754     0.13300
H1515       H  0.63919574  0.07965000  0.78365985     0.13200
H1516       H  0.61614409  0.05554008  0.78428151     0.12200
C1517       C  0.75689051  0.33578891  0.65399729     0.18500
C1518       C  0.74381568  0.34587181  0.66187299    -0.10600
C1519       C  0.73633038  0.32599637  0.68039522    -0.11400
C1520       C  0.74182587  0.29575253  0.69123498     0.20100
C1521       C  0.75498313  0.28598198  0.68369821    -0.13500
C1522       C  0.76246582  0.30585008  0.66517816    -0.11800
C1523       C  0.73394574  0.27451130  0.70971034     0.01100
C1524       C  0.72761755  0.25627314  0.72520925    -0.31800
C1525       C  0.76415245  0.35475388  0.63310512     0.02400
C1526       C  0.76933709  0.36913982  0.61380363    -0.33400
H1527       H  0.73930313  0.36878405  0.65332700     0.13500
H1528       H  0.72620283  0.33398267  0.68597836     0.13300
H1529       H  0.75940430  0.26274190  0.69186678     0.13200
H1530       H  0.77249815  0.29753077  0.65922037     0.12200
C1531       C  0.20531400  0.33413037  0.35487306     0.18500
C1532       C  0.19414574  0.35581192  0.35124262    -0.10600
C1533       C  0.19419588  0.38875378  0.36249626    -0.11400
C1534       C  0.20543652  0.40014459  0.37734080     0.20100
C1535       C  0.21663827  0.37854780  0.38079405    -0.13500
C1536       C  0.21658633  0.34563043  0.36955689    -0.11800
C1537       C  0.20533991  0.43336207  0.39002693     0.01100
C1538       C  0.20569159  0.45989436  0.40256355    -0.31800
C1539       C  0.20541920  0.30062728  0.34265031     0.02400
C1540       C  0.20577716  0.27373150  0.33060134    -0.33400
H1541       H  0.18542270  0.34725891  0.33972000     0.13500
H1542       H  0.18546729  0.40521481  0.35977628     0.13300
H1543       H  0.22536661  0.38708348  0.39231334     0.13200
H1544       H  0.22531917  0.32918497  0.37229250     0.12200
C1545       C  0.24426519  0.44737571  0.54681764     0.18500
C1546       C  0.24286197  0.45504571  0.57461483    -0.10600
C1547       C  0.25004481  0.43627709  0.59424987    -0.11400
C1548       C  0.25874071  0.40961009  0.58634586     0.20100
C1549       C  0.26016831  0.40192175  0.55854806    -0.13500
C1550       C  0.25297684  0.42072170  0.53888412    -0.11800
C1551       C  0.26588005  0.38989253  0.60691352     0.01100
C1552       C  0.27096205  0.37408244  0.62557730    -0.31800
C1553       C  0.23679800  0.46686306  0.52655115     0.02400
C1554       C  0.23060942  0.48346041  0.50973934    -0.33400
H1555       H  0.23619108  0.47550946  0.58113912     0.13500
H1556       H  0.24877483  0.44248987  0.61561746     0.13300
H1557       H  0.26679344  0.38134306  0.55206969     0.13200
H1558       H  0.25419070  0.41442786  0.51752280     0.12200
C1559       C  0.24989782  0.69522859  0.29529612     0.18500
C1560       C  0.24889674  0.70541996  0.32264125    -0.10600
C1561       C  0.24133736  0.68590828  0.34122047    -0.11400
C1562       C  0.23467009  0.65601141  0.33267115     0.20100
C1563       C  0.23561236  0.64589537  0.30529532    -0.13500
C1564       C  0.24317645  0.66543144  0.28669724    -0.11800
C1565       C  0.22729696  0.63540411  0.35231149     0.01100
C1566       C  0.22208409  0.61936413  0.37069692    -0.31800
C1567       C  0.25781619  0.71521893  0.27612377     0.02400
C1568       C  0.26428689  0.73189279  0.25983338    -0.33400
H1569       H  0.25400974  0.72835456  0.32963989     0.13500
H1570       H  0.24077020  0.69401449  0.36231417     0.13300
H1571       H  0.23058437  0.62281493  0.29836363     0.13200
H1572       H  0.24383646  0.65720877  0.26564735     0.12200
C1573       C  0.24681678  0.70847877  0.48504713     0.18500
C1574       C  0.24892267  0.72978846  0.46243925    -0.10600
C1575       C  0.24938525  0.76532348  0.46579154    -0.11400
C1576       C  0.24758577  0.77961903  0.49171683     0.20100
C1577       C  0.24547453  0.75829196  0.51429987    -0.13500
C1578       C  0.24502452  0.72278466  0.51095412    -0.11800
C1579       C  0.24975206  0.81554460  0.49594467     0.01100
C1580       C  0.25445551  0.84277864  0.50231563    -0.31800
C1581       C  0.24462860  0.67253961  0.48101288     0.02400
C1582       C  0.23985082  0.64510221  0.47550474    -0.33400
H1583       H  0.25004270  0.71894843  0.44221986     0.13500
H1584       H  0.25129247  0.78157965  0.44829446     0.13300
H1585       H  0.24434491  0.76910950  0.53452471     0.13200
H1586       H  0.24312038  0.70654092  0.52846108     0.12200
C1587       C  0.03829175  0.83535249  0.37933011     0.18500
C1588       C  0.02691243  0.84721355  0.36518875    -0.10600
C1589       C  0.02671354  0.88049908  0.35469838    -0.11400
C1590       C  0.03787604  0.90216170  0.35834730     0.20100
C1591       C  0.04925460  0.89039188  0.37259414    -0.13500
C1592       C  0.04944979  0.85704793  0.38312252    -0.11800
C1593       C  0.03780230  0.93572527  0.34620557     0.01100
C1594       C  0.03728034  0.96220268  0.33359796    -0.31800
C1595       C  0.03822042  0.80149730  0.39095139     0.02400
C1596       C  0.03761557  0.77428506  0.40251196    -0.33400
H1597       H  0.01819130  0.83076158  0.36232758     0.13500
H1598       H  0.01789377  0.88927530  0.34358381     0.13300
H1599       H  0.05797243  0.90686493  0.37540399     0.13200
H1600       H  0.05826266  0.84821744  0.39422703     0.12200
C1601       C  0.13489611  0.60477033  0.42881319     0.18500
C1602       C  0.13279931  0.64016886  0.42578797    -0.10600
C1603       C  0.11963430  0.65370717  0.42585796    -0.11400
C1604       C  0.10843134  0.63197916  0.42895907     0.20100
C1605       C  0.11053307  0.59659129  0.43194681    -0.13500
C1606       C  0.12368886  0.58306459  0.43188837    -0.11800
C1607       C  0.09480460  0.64573627  0.43010164     0.01100
C1608       C  0.08310387  0.65440965  0.43288688    -0.31800
C1609       C  0.14854279  0.59110669  0.42985978     0.02400
C1610       C  0.16019148  0.58187692  0.43240580    -0.33400
H1611       H  0.14134786  0.65733785  0.42363345     0.13500
H1612       H  0.11820955  0.68111192  0.42374311     0.13300
H1613       H  0.10199927  0.57947740  0.43457956     0.13200
H1614       H  0.12511667  0.55572680  0.43449249     0.12200
C1615       C  0.99472512  0.53709293  0.29346985     0.18500
C1616       C  0.00225457  0.52088912  0.31400734    -0.10600
C1617       C  0.00973333  0.54034162  0.33278113    -0.11400
C1618       C  0.00980314  0.57626902  0.33123993     0.20100
C1619       C  0.00228567  0.59249172  0.31067640    -0.13500
C1620       C  0.99480295  0.57302453  0.29188605    -0.11800
C1621       C  0.01698674  0.59633498  0.35158701     0.01100
C1622       C  0.02204245  0.61224462  0.37026136    -0.31800
C1623       C  0.98699202  0.51687157  0.27407030     0.02400
C1624       C  0.98068812  0.49971370  0.25779238    -0.33400
H1625       H  0.00230757  0.49319173  0.31558512     0.13500
H1626       H  0.01536887  0.52735684  0.34864898     0.13300
H1627       H  0.00211197  0.62020060  0.30929858     0.13200
H1628       H  0.98904140  0.58600179  0.27619981     0.12200
C1629       C  0.99684676  0.45699998  0.49880467     0.18500
C1630       C  0.99212800  0.47076887  0.47422565    -0.10600
C1631       C  0.99212379  0.50618482  0.47026357    -0.11400
C1632       C  0.99669878  0.52796792  0.49097257     0.20100
C1633       C  0.00130482  0.51425362  0.51566861    -0.13500
C1634       C  0.00129279  0.47880046  0.51964703    -0.11800
C1635       C  0.99866937  0.56358047  0.48517906     0.01100
C1636       C  0.00333737  0.59030928  0.47753915    -0.31800
C1637       C  0.99534548  0.42104576  0.50395549     0.02400
C1638       C  0.99084358  0.39353693  0.51016869    -0.33400
H1639       H  0.98836929  0.45414678  0.45823082     0.13500
H1640       H  0.98880239  0.51654931  0.45089251     0.13300
H1641       H  0.00512128  0.53089136  0.53159817     0.13200
H1642       H  0.00465785  0.46840564  0.53897445     0.12200
C1643       C  0.20523964  0.89924700  0.87809834     0.18500
C1644       C  0.21276427  0.87283320  0.89013581    -0.10600
C1645       C  0.21302831  0.84031552  0.87822588    -0.11400
C1646       C  0.20573701  0.83409311  0.85427806     0.20100
C1647       C  0.19820455  0.86050507  0.84223844    -0.13500
C1648       C  0.19794087  0.89304216  0.85415446    -0.11800
C1649       C  0.20622414  0.80092098  0.84162421     0.01100
C1650       C  0.20673299  0.77424038  0.82934445    -0.31800
C1651       C  0.20505248  0.93256634  0.89051052     0.02400
C1652       C  0.20542854  0.95930710  0.90270765    -0.33400
H1653       H  0.21844146  0.87741225  0.90867664     0.13500
H1654       H  0.21893595  0.82011134  0.88760483     0.13300
H1655       H  0.19258628  0.85596334  0.82362137     0.13200
H1656       H  0.19209314  0.91330791  0.84470904     0.12200
C1657       C  0.18461739  0.61489256  0.58543631     0.18500
C1658       C  0.18124927  0.58887357  0.60391863    -0.10600
C1659       C  0.18150489  0.59537102  0.63193605    -0.11400
C1660       C  0.18512739  0.62790754  0.64152032     0.20100
C1661       C  0.18827122  0.65407540  0.62300599    -0.13500
C1662       C  0.18801918  0.64757745  0.59500130    -0.11800
C1663       C  0.18625842  0.63414661  0.67029208     0.01100
C1664       C  0.18802807  0.64051313  0.69404277    -0.31800
C1665       C  0.18561850  0.60728581  0.55688196     0.02400
C1666       C  0.18756331  0.59938818  0.53349840    -0.33400
H1667       H  0.17873022  0.56341609  0.59670009     0.13500
H1668       H  0.17913639  0.57492120  0.64609583     0.13300
H1669       H  0.19116433  0.67927198  0.63023417     0.13200
H1670       H  0.19076412  0.66775893  0.58086919     0.12200
C1671       C  0.24709794  0.45642521  0.73986730     0.18500
C1672       C  0.23721891  0.47393755  0.72494465    -0.10600
C1673       C  0.23675864  0.50969120  0.72571684    -0.11400
C1674       C  0.24626845  0.52797692  0.74115109     0.20100
C1675       C  0.25618686  0.51046280  0.75594932    -0.13500
C1676       C  0.25664286  0.47472767  0.75518744    -0.11800
C1677       C  0.24451429  0.56408824  0.74487377     0.01100
C1678       C  0.23996975  0.59147195  0.75122257    -0.31800
C1679       C  0.24870754  0.42017501  0.73673074     0.02400
C1680       C  0.25328612  0.39253450  0.73123508    -0.33400
H1681       H  0.22998041  0.46001957  0.71259242     0.13500
H1682       H  0.22887315  0.52305857  0.71464454     0.13300
H1683       H  0.26340728  0.52436303  0.76835821     0.13200
H1684       H  0.26450646  0.46136565  0.76632745     0.12200
C1685       C  0.23236906  0.57576876  0.89748436     0.18500
C1686       C  0.23254901  0.53983307  0.89608751    -0.10600
C1687       C  0.24028284  0.52068966  0.91465438    -0.11400
C1688       C  0.24795579  0.53723156  0.93481649     0.20100
C1689       C  0.24766912  0.57315394  0.93637605    -0.13500
C1690       C  0.23993546  0.59229896  0.91780542    -0.11800
C1691       C  0.25605008  0.51743072  0.95390640     0.01100
C1692       C  0.26254935  0.50080099  0.97023014    -0.31800
C1693       C  0.22520987  0.59559099  0.87698281     0.02400
C1694       C  0.22038558  0.61153255  0.85810044    -0.33400
H1695       H  0.22686557  0.52662500  0.88041058     0.13500
H1696       H  0.24035382  0.49298746  0.91314101     0.13300
H1697       H  0.25350306  0.58638399  0.95181240     0.13200
H1698       H  0.24001362  0.62002059  0.91907118     0.12200
C1699       C  0.25912173  0.83217392  0.64883483     0.18500
C1700       C  0.24517256  0.82659572  0.64572588    -0.10600
C1701       C  0.23803664  0.80666419  0.66468801    -0.11400
C1702       C  0.24476269  0.79203363  0.68699938     0.20100
C1703       C  0.25870043  0.79778720  0.69025312    -0.13500
C1704       C  0.26584975  0.81774747  0.67125416    -0.11800
C1705       C  0.23736298  0.77098788  0.70631049     0.01100
C1706       C  0.23108249  0.75340995  0.72230668    -0.31800
C1707       C  0.26646903  0.85172711  0.62846757     0.02400
C1708       C  0.27165761  0.86704280  0.60965677    -0.33400
H1709       H  0.23981956  0.83743146  0.62848897     0.13500
H1710       H  0.22728888  0.80249754  0.66185119     0.13300
H1711       H  0.26405829  0.78668295  0.70737118     0.13200
H1712       H  0.27661944  0.82168387  0.67392934     0.12200
C1713       C  0.04046247  0.33464112  0.87909026     0.18500
C1714       C  0.05001404  0.34288566  0.85898780    -0.10600
C1715       C  0.04999020  0.37552498  0.84709206    -0.11400
C1716       C  0.04045007  0.40007651  0.85531328     0.20100
C1717       C  0.03097242  0.39185595  0.87552718    -0.13500
C1718       C  0.03099586  0.35927805  0.88740000    -0.11800
C1719       C  0.04004447  0.43321437  0.84235179     0.01100
C1720       C  0.03926262  0.46006566  0.83024353    -0.31800
C1721       C  0.04026540  0.30109019  0.89137848     0.02400
C1722       C  0.03944733  0.27416052  0.90336639    -0.33400
H1723       H  0.05740421  0.32409038  0.85243192     0.13500
H1724       H  0.05732845  0.38153117  0.83137499     0.13300
H1725       H  0.02350690  0.41053162  0.88195839     0.13200
H1726       H  0.02358191  0.35322798  0.90296523     0.12200
C1727       C  0.05658393  0.62213034  0.58755010     0.18500
C1728       C  0.06175708  0.64743353  0.60497331    -0.10600
C1729       C  0.06188164  0.64211487  0.63319979    -0.11400
C1730       C  0.05681370  0.61147507  0.64406961     0.20100
C1731       C  0.05178573  0.58608018  0.62659887    -0.13500
C1732       C  0.05165467  0.59139683  0.59842922    -0.11800
C1733       C  0.05618049  0.60627603  0.67309778     0.01100
C1734       C  0.05461852  0.59962726  0.69690076    -0.31800
C1735       C  0.05569712  0.62838351  0.55869649     0.02400
C1736       C  0.05419373  0.63518690  0.53492279    -0.33400
H1737       H  0.06550173  0.67141445  0.59677385     0.13500
H1738       H  0.06573257  0.66200169  0.64651270     0.13300
H1739       H  0.04777992  0.56236662  0.63479694     0.13200
H1740       H  0.04753690  0.57177710  0.58518392     0.12200
C1741       C  0.10867266  0.60619855  0.80413142     0.18500
C1742       C  0.11074988  0.64164813  0.80665009    -0.10600
C1743       C  0.12390945  0.65510486  0.80690911    -0.11400
C1744       C  0.13510803  0.63323812  0.80463617     0.20100
C1745       C  0.13303311  0.59774936  0.80243759    -0.13500
C1746       C  0.11987535  0.58429605  0.80216476    -0.11800
C1747       C  0.14867439  0.64707580  0.80285071     0.01100
C1748       C  0.16025497  0.65600481  0.79902765    -0.31800
C1749       C  0.09505971  0.59269024  0.80226984     0.02400
C1750       C  0.08344629  0.58370120  0.79902161    -0.33400
H1751       H  0.10219357  0.65892705  0.80798292     0.13500
H1752       H  0.12533587  0.68257404  0.80839941     0.13300
H1753       H  0.14157966  0.58053657  0.80044360     0.13200
H1754       H  0.11844162  0.55689900  0.80000096     0.12200
C1755       C  0.99784037  0.44541396  0.69141247     0.18500
C1756       C  0.99568781  0.41030756  0.69602127    -0.10600
C1757       C  0.98818745  0.39068449  0.67734927    -0.11400
C1758       C  0.98272670  0.40598006  0.65390185     0.20100
C1759       C  0.98481299  0.44111285  0.64942685    -0.13500
C1760       C  0.99230452  0.46070028  0.66806295    -0.11800
C1761       C  0.97561845  0.38559495  0.63367095     0.01100
C1762       C  0.97063697  0.36989661  0.61481746    -0.31800
C1763       C  0.00576339  0.46573629  0.71041603     0.02400
C1764       C  0.01229916  0.48308425  0.72617886    -0.33400
H1765       H  0.99988758  0.39804698  0.71393232     0.13500
H1766       H  0.98677454  0.36355190  0.68105522     0.13300
H1767       H  0.98076915  0.45332127  0.63134576     0.13200
H1768       H  0.99386112  0.48773865  0.66414604     0.12200
C1769       C  0.95342034  0.58117144  0.12622954     0.18500
C1770       C  0.95698763  0.61025577  0.14137007    -0.10600
C1771       C  0.95714581  0.64256401  0.12905401    -0.11400
C1772       C  0.95372665  0.64604505  0.10150067     0.20100
C1773       C  0.95022769  0.61692512  0.08625777    -0.13500
C1774       C  0.95006934  0.58454432  0.09860128    -0.11800
C1775       C  0.95397599  0.67940637  0.08885927     0.01100
C1776       C  0.95449790  0.70684003  0.07752322    -0.31800
C1777       C  0.95335766  0.54807806  0.13926245     0.02400
C1778       C  0.95388315  0.52173302  0.15209152    -0.33400
H1779       H  0.95965365  0.60794317  0.16271378     0.13500
H1780       H  0.95993640  0.66481722  0.14100956     0.13300
H1781       H  0.94763307  0.61926116  0.06488215     0.13200
H1782       H  0.94735032  0.56222938  0.08665141     0.12200
C1783       C  0.99899773  0.94465974  0.18807231     0.18500
C1784       C  0.98986088  0.96083257  0.17032855    -0.10600
C1785       C  0.98221203  0.94144892  0.15176781    -0.11400
C1786       C  0.98357618  0.90566116  0.15075986     0.20100
C1787       C  0.99272745  0.88950760  0.16847214    -0.13500
C1788       C  0.00037512  0.90888758  0.18702954    -0.11800
C1789       C  0.97613862  0.88580210  0.13066934     0.01100
C1790       C  0.97087969  0.86997222  0.11219197    -0.31800
C1791       C  0.00681930  0.96463425  0.20749371     0.02400
C1792       C  0.01310683  0.98134384  0.22409076    -0.33400
H1793       H  0.98866138  0.98841404  0.17080367     0.13500
H1794       H  0.97530039  0.95441599  0.13807737     0.13300
H1795       H  0.99402142  0.86196132  0.16782097     0.13200
H1796       H  0.00738083  0.89595001  0.20054059     0.12200
C1797       C  0.99814429  0.02593741  0.98758189     0.18500
C1798       C  0.99989961  0.01363578  0.01415063    -0.10600
C1799       C  0.99987763  0.97837724  0.01907885    -0.11400
C1800       C  0.99826040  0.95534601  0.99740664     0.20100
C1801       C  0.99675265  0.96765010  0.97077818    -0.13500
C1802       C  0.99677302  0.00289884  0.96585414    -0.11800
C1803       C  0.99594764  0.91978703  0.00304824     0.01100
C1804       C  0.99081930  0.89295792  0.00919249    -0.31800
C1805       C  0.99942170  0.06186614  0.98208718     0.02400
C1806       C  0.00363217  0.08959419  0.97568369    -0.33400
H1807       H  0.00129405  0.03125519  0.03098903     0.13500
H1808       H  0.00080531  0.96910413  0.03981471     0.13300
H1809       H  0.99525356  0.95005856  0.95395731     0.13200
H1810       H  0.99573979  0.01218792  0.94514285     0.12200
C1811       C  0.99627443  0.69652274  0.94046281     0.18500
C1812       C  0.99504288  0.66069304  0.93964095    -0.10600
C1813       C  0.00276839  0.64130661  0.92117076    -0.11400
C1814       C  0.01185645  0.65747403  0.90329812     0.20100
C1815       C  0.01329894  0.69324594  0.90451908    -0.13500
C1816       C  0.00557202  0.71263595  0.92299311    -0.11800
C1817       C  0.01885670  0.63778093  0.88239339     0.01100
C1818       C  0.02354641  0.62210004  0.86317336    -0.31800
C1819       C  0.98790737  0.71668681  0.95890441     0.02400
C1820       C  0.98104290  0.73355233  0.97450299    -0.33400
H1821       H  0.98795951  0.64775528  0.95300392     0.13500
H1822       H  0.00144431  0.61376531  0.92045470     0.13300
H1823       H  0.02019585  0.70624612  0.89080213     0.13200
H1824       H  0.00670819  0.74024298  0.92335973     0.12200
C1825       C  0.78709922  0.08587080  0.10266254     0.18500
C1826       C  0.79892015  0.10577083  0.10252428    -0.10600
C1827       C  0.79881136  0.13880956  0.11369207    -0.11400
C1828       C  0.78686217  0.15211926  0.12492845     0.20100
C1829       C  0.77505543  0.13221534  0.12497792    -0.13500
C1830       C  0.77516606  0.09923331  0.11384398    -0.11800
C1831       C  0.78674074  0.18551811  0.13747863     0.01100
C1832       C  0.78611985  0.21203948  0.15007783    -0.31800
C1833       C  0.78704822  0.05221592  0.09059671     0.02400
C1834       C  0.78662550  0.02496548  0.07902018    -0.33400
H1835       H  0.80819163  0.09577004  0.09378963     0.13500
H1836       H  0.80802635  0.15386623  0.11368095     0.13300
H1837       H  0.76577963  0.14213963  0.13375220     0.13200
H1838       H  0.76595055  0.08417227  0.11393109     0.12200
C1839       C  0.73293937  0.07150230  0.89658835     0.18500
C1840       C  0.72655689  0.04607995  0.91227298    -0.10600
C1841       C  0.73390550  0.02755728  0.93193291    -0.11400
C1842       C  0.74773677  0.03417823  0.93611945     0.20100
C1843       C  0.75408551  0.05961741  0.92045734    -0.13500
C1844       C  0.74675152  0.07810670  0.90084093    -0.11800
C1845       C  0.75543346  0.01486003  0.95625393     0.01100
C1846       C  0.76186371  0.99867284  0.97301589    -0.31800
C1847       C  0.72556007  0.09036893  0.87570958     0.02400
C1848       C  0.72046179  0.10631851  0.85705166    -0.33400
H1849       H  0.71592409  0.04045810  0.90924623     0.13500
H1850       H  0.72881236  0.00800790  0.94378275     0.13300
H1851       H  0.76474003  0.06511276  0.92332826     0.13200
H1852       H  0.75188421  0.09748897  0.88888578     0.12200
C1853       C  0.88464075  0.85473966  0.05777111     0.18500
C1854       C  0.87358581  0.83218246  0.05744251    -0.10600
C1855       C  0.86029247  0.84492066  0.05787121    -0.11400
C1856       C  0.85788428  0.88038886  0.05860836     0.20100
C1857       C  0.86893636  0.90292193  0.05966157    -0.13500
C1858       C  0.88223336  0.89017981  0.05924807    -0.11800
C1859       C  0.84414965  0.89343564  0.05635425     0.01100
C1860       C  0.83252703  0.90213648  0.05227455    -0.31800
C1861       C  0.89837795  0.84185069  0.05490246     0.02400
C1862       C  0.90998559  0.83308002  0.05066157    -0.33400
H1863       H  0.87522975  0.80477066  0.05620839     0.13500
H1864       H  0.85189247  0.82712281  0.05693965     0.13300
H1865       H  0.86728841  0.93037006  0.06012682     0.13200
H1866       H  0.89063409  0.90801153  0.05942501     0.12200
C1867       C  0.74535054  0.78883281  0.19012028     0.18500
C1868       C  0.74006779  0.79353794  0.16387918    -0.10600
C1869       C  0.74722518  0.81267504  0.14447421    -0.11400
C1870       C  0.75976687  0.82737715  0.15103069     0.20100
C1871       C  0.76514325  0.82247087  0.17722279    -0.13500
C1872       C  0.75796266  0.80326855  0.19669042    -0.11800
C1873       C  0.76691717  0.84745352  0.13071134     0.01100
C1874       C  0.77175174  0.86333153  0.11181845    -0.31800
C1875       C  0.73775112  0.76928163  0.21009073     0.02400
C1876       C  0.73119357  0.75257123  0.22621972    -0.33400
H1877       H  0.73037755  0.78250421  0.15843243     0.13500
H1878       H  0.74293839  0.81611429  0.12433402     0.13300
H1879       H  0.77483013  0.83355300  0.18261545     0.13200
H1880       H  0.76221759  0.79979812  0.21685024     0.12200
C1881       C  0.74563234  0.70459854  0.98530547     0.18500
C1882       C  0.74738292  0.71643030  0.01198709    -0.10600
C1883       C  0.74779124  0.75160491  0.01712577    -0.11400
C1884       C  0.74631232  0.77499580  0.99564478     0.20100
C1885       C  0.74456983  0.76316071  0.96896276    -0.13500
C1886       C  0.74416237  0.72798709  0.96382395    -0.11800
C1887       C  0.74831969  0.81076924  0.00075748     0.01100
C1888       C  0.75301191  0.83807498  0.00691341    -0.31800
C1889       C  0.74355062  0.66885571  0.98021392     0.02400
C1890       C  0.73873515  0.64164431  0.97420421    -0.33400
H1891       H  0.74827134  0.69853002  0.02878113     0.13500
H1892       H  0.74940059  0.76058345  0.03778035     0.13300
H1893       H  0.74366768  0.78105997  0.95217198     0.13200
H1894       H  0.74254039  0.71900825  0.94317313     0.12200
C1895       C  0.95319616  0.14949516  0.60562602     0.18500
C1896       C  0.94215363  0.12752498  0.60144292    -0.10600
C1897       C  0.94228423  0.09438353  0.61238867    -0.11400
C1898       C  0.95348102  0.08311408  0.62745580     0.20100
C1899       C  0.96449938  0.10509637  0.63159029    -0.13500
C1900       C  0.96436449  0.13816545  0.62068937    -0.11800
C1901       C  0.95359278  0.04957534  0.63962456     0.01100
C1902       C  0.95427511  0.02293500  0.65197216    -0.31800
C1903       C  0.95341807  0.18303523  0.59343408     0.02400
C1904       C  0.95421950  0.21002696  0.58158678    -0.33400
H1905       H  0.93350165  0.13594595  0.58964569     0.13500
H1906       H  0.93368215  0.07764125  0.60917326     0.13300
H1907       H  0.97318082  0.09669033  0.64331235     0.13200
H1908       H  0.97299310  0.15483125  0.62388031     0.12200
C1909       C  0.01019270  0.07575975  0.83230806     0.18500
C1910       C  0.00723822  0.08950194  0.80654617    -0.10600
C1911       C  0.99984563  0.07033137  0.78739425    -0.11400
C1912       C  0.99528702  0.03718491  0.79378267     0.20100
C1913       C  0.99837567  0.02332036  0.81943542    -0.13500
C1914       C  0.00576276  0.04247233  0.83856959    -0.11800
C1915       C  0.98736084  0.01756018  0.77423780     0.01100
C1916       C  0.98078872  0.00086332  0.75804089    -0.31800
C1917       C  0.01720000  0.09612562  0.85276089     0.02400
C1918       C  0.02217743  0.11235895  0.87136716    -0.33400
H1919       H  0.01051442  0.11518533  0.80135697     0.13500
H1920       H  0.99758606  0.08148444  0.76770167     0.13300
H1921       H  0.99496982  0.99778545  0.82475954     0.13200
H1922       H  0.00788459  0.03144832  0.85837401     0.12200
C1923       C  0.93577080  0.86316102  0.89461264     0.18500
C1924       C  0.93150896  0.83697497  0.87702571    -0.10600
C1925       C  0.93129238  0.84241101  0.84883462    -0.11400
C1926       C  0.93535000  0.87405903  0.83812645     0.20100
C1927       C  0.93936691  0.90044953  0.85574575    -0.13500
C1928       C  0.93959162  0.89501003  0.88391839    -0.11800
C1929       C  0.93615804  0.87909690  0.80911110     0.01100
C1930       C  0.93787540  0.88536176  0.78529789    -0.31800
C1931       C  0.93694010  0.85664461  0.92340548     0.02400
C1932       C  0.93863923  0.84947814  0.94707200    -0.33400
H1933       H  0.92860960  0.81217584  0.88506909     0.13500
H1934       H  0.92822934  0.82178279  0.83540138     0.13300
H1935       H  0.94258642  0.92497954  0.84766646     0.13200
H1936       H  0.94298289  0.91537091  0.89728990     0.12200
C1937       C  0.98180821  0.82641038  0.58091906     0.18500
C1938       C  0.98979415  0.84212344  0.56082357    -0.10600
C1939       C  0.99723505  0.82218152  0.54229498    -0.11400
C1940       C  0.99681409  0.78627212  0.54364877     0.20100
C1941       C  0.98871767  0.77051730  0.56356459    -0.13500
C1942       C  0.98126992  0.79047224  0.58210243    -0.11800
C1943       C  0.00474496  0.76583552  0.52471040     0.01100
C1944       C  0.01137223  0.74937030  0.50848966    -0.31800
C1945       C  0.97488489  0.84695230  0.60134307     0.02400
C1946       C  0.97008266  0.86304301  0.62019930    -0.33400
H1947       H  0.99042544  0.86980790  0.55970244     0.13500
H1948       H  0.00341912  0.83478632  0.52705919     0.13300
H1949       H  0.98825253  0.74282670  0.56493458     0.13200
H1950       H  0.97524473  0.77787341  0.59759855     0.12200
C1951       C  0.99580792  0.70570486  0.74613910     0.18500
C1952       C  0.99243513  0.72764239  0.76769524    -0.10600
C1953       C  0.99233146  0.76305503  0.76366799    -0.11400
C1954       C  0.99576083  0.77660046  0.73815854     0.20100
C1955       C  0.99913482  0.75466736  0.71660128    -0.13500
C1956       C  0.99923806  0.71925599  0.72062830    -0.11800
C1957       C  0.99389366  0.81237507  0.73294101     0.01100
C1958       C  0.98925741  0.83951081  0.72621606    -0.31800
C1959       C  0.99775737  0.66996040  0.75138591     0.02400
C1960       C  0.00260767  0.64301482  0.75798808    -0.33400
H1961       H  0.99007101  0.71738628  0.78766993     0.13500
H1962       H  0.98942900  0.77981402  0.78029239     0.13300
H1963       H  0.00151782  0.76492793  0.69663648     0.13200
H1964       H  0.00215939  0.70250368  0.70401277     0.12200
C1965       C  0.78718503  0.65228691  0.62738033     0.18500
C1966       C  0.77516496  0.63777728  0.61757970    -0.10600
C1967       C  0.77524501  0.60490096  0.60620830    -0.11400
C1968       C  0.78734197  0.58623137  0.60461408     0.20100
C1969       C  0.79936065  0.60060245  0.61463100    -0.13500
C1970       C  0.79927880  0.63352932  0.62603358    -0.11800
C1971       C  0.78742975  0.55296802  0.59175750     0.01100
C1972       C  0.78703579  0.52617580  0.57944735    -0.31800
C1973       C  0.78693325  0.68582488  0.63971804     0.02400
C1974       C  0.78619609  0.71267966  0.65184219    -0.33400
H1975       H  0.76573201  0.65188013  0.61873520     0.13500
H1976       H  0.76589115  0.59412636  0.59849949     0.13300
H1977       H  0.80878419  0.58646707  0.61347593     0.13200
H1978       H  0.80861930  0.64433605  0.63377664     0.12200
C1979       C  0.75796647  0.91127919  0.58427654     0.18500
C1980       C  0.74450844  0.90290439  0.57799102    -0.10600
C1981       C  0.73727079  0.92212279  0.55874157    -0.11400
C1982       C  0.74337579  0.95002642  0.54558539     0.20100
C1983       C  0.75683067  0.95851860  0.55187838    -0.13500
C1984       C  0.76408212  0.93926494  0.57116764    -0.11800
C1985       C  0.73578668  0.96986848  0.52580540     0.01100
C1986       C  0.72928371  0.98610392  0.50930855    -0.31800
C1987       C  0.76525578  0.89159669  0.60466207     0.02400
C1988       C  0.77034269  0.87524840  0.62303779    -0.33400
H1989       H  0.73958829  0.88155568  0.58803849     0.13500
H1990       H  0.72688945  0.91525020  0.55417419     0.13300
H1991       H  0.76169684  0.98003222  0.54194954     0.13200
H1992       H  0.77443019  0.94626636  0.57589919     0.12200
C1993       C  0.74614815  0.03162181  0.73835961     0.18500
C1994       C  0.75307483  0.01263420  0.75813578    -0.10600
C1995       C  0.75307742  0.97689743  0.75686907    -0.11400
C1996       C  0.74600907  0.96009978  0.73603746     0.20100
C1997       C  0.73922549  0.97910669  0.71607996    -0.13500
C1998       C  0.73922808  0.01483550  0.71733805    -0.11800
C1999       C  0.74731740  0.92375424  0.73307895     0.01100
C2000       C  0.75158834  0.89575286  0.72774468    -0.31800
C2001       C  0.74405236  0.06753209  0.74233740     0.02400
C2002       C  0.73899260  0.09417767  0.74901454    -0.33400
H2003       H  0.75819134  0.02540190  0.77482483     0.13500
H2004       H  0.75862383  0.96237527  0.77202268     0.13300
H2005       H  0.73400136  0.96632933  0.69953468     0.13200
H2006       H  0.73358110  0.02933940  0.70232375     0.12200
C2007       C  0.80742806  0.87269398  0.89541942     0.18500
C2008       C  0.81042582  0.89927893  0.87716386    -0.10600
C2009       C  0.80987796  0.89344120  0.84904970    -0.11400
C2010       C  0.80632069  0.86100474  0.83914167     0.20100
C2011       C  0.80360613  0.83426590  0.85740644    -0.13500
C2012       C  0.80414805  0.84010006  0.88548582    -0.11800
C2013       C  0.80478995  0.85530864  0.81036317     0.01100
C2014       C  0.80273870  0.84859299  0.78676194    -0.31800
C2015       C  0.80673040  0.87949508  0.92418625     0.02400
C2016       C  0.80506629  0.88646427  0.94787435    -0.33400
H2017       H  0.81287589  0.92465436  0.88465048     0.13500
H2018       H  0.81194763  0.91431652  0.83509320     0.13300
H2019       H  0.80079634  0.80911896  0.84993571     0.13200
H2020       H  0.80171263  0.81944664  0.89941608     0.12200
C2021       C  0.88376067  0.87934516  0.68234670     0.18500
C2022       C  0.88154409  0.84383315  0.68087411    -0.10600
C2023       C  0.86832479  0.83063333  0.68112899    -0.11400
C2024       C  0.85718561  0.85281460  0.68285328     0.20100
C2025       C  0.85940853  0.88830128  0.68435694    -0.13500
C2026       C  0.87261774  0.90149033  0.68410990    -0.11800
C2027       C  0.84349037  0.83947562  0.68388113     0.01100
C2028       C  0.83174573  0.83098735  0.68626379    -0.31800
C2029       C  0.89745232  0.89278534  0.68300775     0.02400
C2030       C  0.90913629  0.90192669  0.68512209    -0.33400
H2031       H  0.89003746  0.82633592  0.67972986     0.13500
H2032       H  0.86680443  0.80316020  0.68015977     0.13300
H2033       H  0.85092453  0.90578069  0.68590504     0.13200
H2034       H  0.87413497  0.92893650  0.68549035     0.12200
C2035       C  0.73156911  0.65349272  0.83159692     0.18500
C2036       C  0.72877790  0.65039275  0.80364078    -0.10600
C2037       C  0.73603109  0.66999263  0.78450353    -0.11400
C2038       C  0.74615557  0.69285389  0.79311419     0.20100
C2039       C  0.74895087  0.69579284  0.82104612    -0.13500
C2040       C  0.74171673  0.67625341  0.84012949    -0.11800
C2041       C  0.75363494  0.71347583  0.77352394     0.01100
C2042       C  0.75995964  0.73122093  0.75764167    -0.31800
C2043       C  0.72423798  0.63340076  0.85172776     0.02400
C2044       C  0.71917493  0.61776909  0.87054949    -0.33400
H2045       H  0.72101303  0.63289371  0.79664420     0.13500
H2046       H  0.73372779  0.66734544  0.76301837     0.13300
H2047       H  0.75671886  0.71325078  0.82810175     0.13200
H2048       H  0.74404544  0.67893051  0.86160694     0.12200
loop_ 
_geom_bond_atom_site_label_1 
_geom_bond_atom_site_label_2 
_geom_bond_distance 
_geom_bond_site_symmetry_2 
_ccdc_geom_bond_type 
Fe1          O17   2.051       .  S
Fe1           O7   2.083       .  S
Fe1          O14   2.090       .  S
Fe1           O6   2.060       .  S
Fe1          O12   1.978       .  S
Fe2           O5   2.035       .  S
Fe2           O9   2.080       .  S
Fe2          O13   2.058       .  S
Fe2          O18   2.079       .  S
Fe2          O12   1.976       .  S
Fe3          O21   2.076       .  S
Fe3           O8   2.073       .  S
Fe3          O15   2.070       .  S
Fe3           O4   2.085       .  S
Fe3          O12   1.981       .  S
O4           C11   1.275       .  A
O5           C19   1.264       .  A
O6           C11   1.271       .  A
O7           C10   1.267       .  A
O8           C20   1.269       .  A
O9           C22   1.270       .  A
C10          O15   1.265       .  A
C10        C2042   1.451       .  S
C11        C1974   1.436       .  S
O13          C16   1.265       .  A
O14          C16   1.270       .  A
C16        C2028   1.445       .  S
O17          C22   1.266       .  A
O18          C20   1.270       .  A
C19          O21   1.270       .  A
C19        C2000   1.423       .  S
C20        C1988   1.447       .  S
C22        C2014   1.432       .  S
Fe23         O39   2.048       .  S
Fe23         O29   2.091       .  S
Fe23         O36   2.096       .  S
Fe23         O28   2.058       .  S
Fe23         O34   1.973       .  S
Fe24         O27   2.036       .  S
Fe24         O31   2.087       .  S
Fe24         O35   2.056       .  S
Fe24         O40   2.085       .  S
Fe24         O34   1.970       .  S
Fe25         O43   2.076       .  S
Fe25         O30   2.072       .  S
Fe25         O37   2.068       .  S
Fe25         O26   2.081       .  S
Fe25         O34   1.977       .  S
O26          C33   1.274       .  A
O27          C41   1.264       .  A
O28          C33   1.270       .  A
O29          C32   1.270       .  A
O30          C42   1.269       .  A
O31          C44   1.272       .  A
C32          O37   1.265       .  A
C32        C1916   1.452   1_565  S
C33        C1902   1.433   1_565  S
O35          C38   1.265       .  A
O36          C38   1.272       .  A
C38        C2030   1.445       .  S
O39          C44   1.266       .  A
O40          C42   1.271       .  A
C41          O43   1.269       .  A
C41        C1958   1.424       .  S
C42        C1946   1.448       .  S
C44        C1930   1.434       .  S
Fe45         O61   2.048   1_554  S
Fe45         O51   2.098   1_554  S
Fe45         O58   2.102       .  S
Fe45         O50   2.056       .  S
Fe45         O56   1.970       .  S
Fe46         O49   2.036       .  S
Fe46         O53   2.083   1_554  S
Fe46         O57   2.057       .  S
Fe46         O62   2.085       .  S
Fe46         O56   1.967       .  S
Fe47         O65   2.079       .  S
Fe47         O52   2.071       .  S
Fe47         O59   2.068       .  S
Fe47         O48   2.084       .  S
Fe47         O56   1.973       .  S
O48          C55   1.273       .  A
O49          C63   1.263       .  A
O50          C55   1.268       .  A
O51          C54   1.272       .  A
O52          C64   1.270       .  A
O53          C66   1.271       .  A
C54          O59   1.267   1_556  A
C54        C1846   1.453       .  S
C55        C1834   1.435   1_565  S
O57          C60   1.265       .  A
O58          C60   1.274       .  A
C60        C1860   1.448       .  S
O61          C66   1.265       .  A
O62          C64   1.272       .  A
C63          O65   1.269       .  A
C63        C1888   1.425       .  S
C64        C1874   1.446       .  S
C66        C2016   1.433       .  S
Fe67         O83   2.052   1_554  S
Fe67         O73   2.096   1_554  S
Fe67         O80   2.103       .  S
Fe67         O72   2.060       .  S
Fe67         O78   1.974       .  S
Fe68         O71   2.038       .  S
Fe68         O75   2.082   1_554  S
Fe68         O79   2.059       .  S
Fe68         O84   2.087       .  S
Fe68         O78   1.972       .  S
Fe69         O87   2.079       .  S
Fe69         O74   2.071       .  S
Fe69         O81   2.066       .  S
Fe69         O70   2.082       .  S
Fe69         O78   1.976       .  S
O70          C77   1.272       .  A
O71          C85   1.263       .  A
O72          C77   1.269       .  A
O73          C76   1.273       .  A
O74          C86   1.270       .  A
O75          C88   1.270       .  A
C76          O81   1.267   1_556  A
C76        C1820   1.451       .  S
C77        C1776   1.437       .  S
O79          C82   1.267       .  A
O80          C82   1.275       .  A
C82        C1862   1.449       .  S
O83          C88   1.265       .  A
O84          C86   1.272       .  A
C85          O87   1.269       .  A
C85        C1804   1.426       .  S
C86        C1790   1.448       .  S
C88        C1932   1.435       .  S
Fe89        O105   2.091       .  S
Fe89         O95   2.061       .  S
Fe89        O102   2.053       .  S
Fe89         O94   2.086       .  S
Fe89        O100   1.977       .  S
Fe90         O93   2.086       .  S
Fe90         O97   2.054       .  S
Fe90        O101   2.081       .  S
Fe90        O106   2.035       .  S
Fe90        O100   1.974       .  S
Fe91        O109   2.075       .  S
Fe91         O96   2.077       .  S
Fe91        O103   2.080       .  S
Fe91         O92   2.069       .  S
Fe91        O100   1.979       .  S
O92          C99   1.267       .  A
O93         C107   1.271       .  A
O94          C99   1.270       .  A
O95          C98   1.269       .  A
O96         C108   1.269       .  A
O97         C110   1.266       .  A
C98         O103   1.272       .  A
C98        C1720   1.436       .  S
C99        C1764   1.449       .  S
O101        C104   1.270       .  A
O102        C104   1.265       .  A
C104       C1734   1.435       .  S
O105        C110   1.272       .  A
O106        C108   1.263       .  A
C107        O109   1.270       .  A
C107       C1818   1.451       .  S
C108       C1960   1.424       .  S
C110       C1750   1.442       .  S
Fe111       O127   2.089       .  S
Fe111       O117   2.056       .  S
Fe111       O124   2.052       .  S
Fe111       O116   2.082       .  S
Fe111       O122   1.982       .  S
Fe112       O115   2.082       .  S
Fe112       O119   2.052       .  S
Fe112       O123   2.076       .  S
Fe112       O128   2.035       .  S
Fe112       O122   1.978       .  S
Fe113       O131   2.073       .  S
Fe113       O118   2.072       .  S
Fe113       O125   2.073       .  S
Fe113       O114   2.067       .  S
Fe113       O122   1.984       .  S
O114        C121   1.266       .  A
O115        C129   1.271       .  A
O116        C121   1.269       .  A
O117        C120   1.268       .  A
O118        C130   1.267       .  A
O119        C132   1.264       .  A
C120        O125   1.271       .  A
C120       C1650   1.431       .  S
C121       C1706   1.446       .  S
O123        C126   1.269       .  A
O124        C126   1.265       .  A
C126       C1664   1.432       .  S
O127        C132   1.271       .  A
O128        C130   1.262       .  A
C129        O131   1.269       .  A
C129       C1694   1.447       .  S
C130       C1678   1.424       .  S
C132       C1748   1.442       .  S
Fe133       O149   2.093       .  S
Fe133       O139   2.057       .  S
Fe133       O146   2.047       .  S
Fe133       O138   2.085       .  S
Fe133       O144   1.976       .  S
Fe134       O137   2.085       .  S
Fe134       O141   2.058       .  S
Fe134       O145   2.084       .  S
Fe134       O150   2.036       .  S
Fe134       O144   1.973       .  S
Fe135       O153   2.071       .  S
Fe135       O140   2.076       .  S
Fe135       O147   2.083       .  S
Fe135       O136   2.065       .  S
Fe135       O144   1.978       .  S
O136        C143   1.264       .  A
O137        C151   1.271       .  A
O138        C143   1.268       .  A
O139        C142   1.270       .  A
O140        C152   1.269       .  A
O141        C154   1.266       .  A
C142        O147   1.274       .  A
C142       C1596   1.433       .  S
C143       C1944   1.449       .  S
O145        C148   1.271       .  A
O146        C148   1.264       .  A
C148       C1736   1.434       .  S
O149        C154   1.272       .  A
O150        C152   1.264       .  A
C151        O153   1.268       .  A
C151       C1622   1.449       .  S
C152       C1636   1.424       .  S
C154       C1608   1.444       .  S
Fe155       O171   2.094       .  S
Fe155       O161   2.058       .  S
Fe155       O168   2.048       .  S
Fe155       O160   2.088       .  S
Fe155       O166   1.972       .  S
Fe156       O159   2.081       .  S
Fe156       O163   2.057       .  S
Fe156       O167   2.081       .  S
Fe156       O172   2.038       .  S
Fe156       O166   1.968       .  S
Fe157       O175   2.069       .  S
Fe157       O162   2.077       .  S
Fe157       O169   2.080       .  S
Fe157       O158   2.068       .  S
Fe157       O166   1.974       .  S
O158        C165   1.266       .  A
O159        C173   1.270       .  A
O160        C165   1.269       .  A
O161        C164   1.270       .  A
O162        C174   1.270       .  A
O163        C176   1.265       .  A
C164        O169   1.273       .  A
C164       C1538   1.433       .  S
C165       C1554   1.449       .  S
O167        C170   1.271       .  A
O168        C170   1.266       .  A
C170       C1666   1.430       .  S
O171        C176   1.272       .  A
O172        C174   1.264       .  A
C173        O175   1.269       .  A
C173       C1566   1.445       .  S
C174       C1582   1.425       .  S
C176       C1610   1.445       .  S
Fe177       O193   2.087       .  S
Fe177       O183   2.061       .  S
Fe177       O190   2.057       .  S
Fe177       O182   2.085       .  S
Fe177       O188   1.984       .  S
Fe178       O181   2.085       .  S
Fe178       O185   2.054       .  S
Fe178       O189   2.078       .  S
Fe178       O194   2.039       .  S
Fe178       O188   1.979       .  S
Fe179       O197   2.077       .  S
Fe179       O184   2.067       .  S
Fe179       O191   2.073       .  S
Fe179       O180   2.069       .  S
Fe179       O188   1.985       .  S
O180        C187   1.266       .  A
O181        C195   1.271       .  A
O182        C187   1.269       .  A
O183        C186   1.269       .  A
O184        C196   1.267       .  A
O185        C198   1.265       .  A
C186        O191   1.271       .  A
C186       C1482   1.433       .  S
C187       C1524   1.449       .  S
O189        C192   1.269       .  A
O190        C192   1.266       .  A
C192       C1496   1.436       .  S
O193        C198   1.271       .  A
O194        C196   1.263       .  A
C195        O197   1.270       .  A
C195       C1848   1.452       .  S
C196       C2002   1.423       .  S
C198       C1510   1.441       .  S
Fe199       O215   2.086       .  S
Fe199       O205   2.052   1_545  S
Fe199       O212   2.051       .  S
Fe199       O204   2.084   1_545  S
Fe199       O210   1.977       .  S
Fe200       O203   2.084       .  S
Fe200       O207   2.057       .  S
Fe200       O211   2.078       .  S
Fe200       O216   2.038       .  S
Fe200       O210   1.971       .  S
Fe201       O219   2.069       .  S
Fe201       O206   2.071       .  S
Fe201       O213   2.071       .  S
Fe201       O202   2.065       .  S
Fe201       O210   1.979       .  S
O202        C209   1.266       .  A
O203        C217   1.271       .  A
O204        C209   1.269   1_565  A
O205        C208   1.267       .  A
O206        C218   1.268       .  A
O207        C220   1.266       .  A
C208        O213   1.270   1_565  A
C208       C1414   1.427       .  S
C209       C1470   1.446   1_545  S
O211        C214   1.269       .  A
O212        C214   1.265       .  A
C214       C1454   1.433       .  S
O215        C220   1.271       .  A
O216        C218   1.264       .  A
C217        O219   1.268       .  A
C217       C1442   1.447       .  S
C218       C1426   1.422       .  S
C220       C1512   1.440       .  S
Fe221       O237   2.091       .  S
Fe221       O227   2.049   1_545  S
Fe221       O234   2.048       .  S
Fe221       O226   2.085       .  S
Fe221       O232   1.971       .  S
Fe222       O225   2.088       .  S
Fe222       O229   2.054       .  S
Fe222       O233   2.089       .  S
Fe222       O238   2.035       .  S
Fe222       O232   1.965       .  S
Fe223       O241   2.069       .  S
Fe223       O228   2.078       .  S
Fe223       O235   2.080       .  S
Fe223       O224   2.063       .  S
Fe223       O232   1.972       .  S
O224        C231   1.265       .  A
O225        C239   1.271       .  A
O226        C231   1.269       .  A
O227        C230   1.268       .  A
O228        C240   1.270       .  A
O229        C242   1.265       .  A
C230        O235   1.273   1_565  A
C230       C1356   1.428       .  S
C231       C1986   1.446   1_545  S
O233        C236   1.271       .  A
O234        C236   1.265       .  A
C236       C1498   1.436       .  S
O237        C242   1.272       .  A
O238        C240   1.264       .  A
C239        O241   1.268       .  A
C239       C1384   1.449       .  S
C240       C1400   1.423       .  S
C242       C1370   1.440       .  S
Fe243       O259   2.092       .  S
Fe243       O249   2.054       .  S
Fe243       O256   2.050       .  S
Fe243       O248   2.088       .  S
Fe243       O254   1.967       .  S
Fe244       O247   2.087       .  S
Fe244       O251   2.052       .  S
Fe244       O255   2.085       .  S
Fe244       O260   2.037       .  S
Fe244       O254   1.961       .  S
Fe245       O263   2.062       .  S
Fe245       O250   2.076       .  S
Fe245       O257   2.075       .  S
Fe245       O246   2.060       .  S
Fe245       O254   1.969       .  S
O246        C253   1.266       .  A
O247        C261   1.273       .  A
O248        C253   1.271       .  A
O249        C252   1.268       .  A
O250        C262   1.268       .  A
O251        C264   1.264       .  A
C252        O257   1.270       .  A
C252       C1300   1.429       .  S
C253       C1314   1.442       .  S
O255        C258   1.272       .  A
O256        C258   1.266       .  A
C258       C1456   1.433       .  S
O259        C264   1.271       .  A
O260        C262   1.262       .  A
C261        O263   1.269       .  A
C261       C1328   1.441       .  S
C262       C1342   1.425       .  S
C264       C1372   1.441       .  S
Fe265       O281   2.099       .  S
Fe265       O271   2.051       .  S
Fe265       O278   2.048       .  S
Fe265       O270   2.093       .  S
Fe265       O276   1.967       .  S
Fe266       O269   2.087       .  S
Fe266       O273   2.052       .  S
Fe266       O277   2.085       .  S
Fe266       O282   2.032       .  S
Fe266       O276   1.963       .  S
Fe267       O285   2.064       .  S
Fe267       O272   2.082       .  S
Fe267       O279   2.082       .  S
Fe267       O268   2.060       .  S
Fe267       O276   1.971       .  S
O268        C275   1.265       .  A
O269        C283   1.271       .  A
O270        C275   1.271       .  A
O271        C274   1.268       .  A
O272        C284   1.270       .  A
O273        C286   1.265       .  A
C274        O279   1.273       .  A
C274       C1358   1.430       .  S
C275       C1876   1.446       .  S
O277        C280   1.271       .  A
O278        C280   1.265       .  A
C280       C1246   1.433       .  S
O281        C286   1.274       .  A
O282        C284   1.263       .  A
C283        O285   1.267       .  A
C283       C1272   1.444       .  S
C284       C1288   1.424       .  S
C286       C1258   1.443       .  S
Fe287       O303   2.092       .  S
Fe287       O293   2.055       .  S
Fe287       O300   2.047       .  S
Fe287       O292   2.083       .  S
Fe287       O298   1.968       .  S
Fe288       O291   2.082       .  S
Fe288       O295   2.058       .  S
Fe288       O299   2.081       .  S
Fe288       O304   2.037       .  S
Fe288       O298   1.964       .  S
Fe289       O307   2.070       .  S
Fe289       O294   2.075       .  S
Fe289       O301   2.079       .  S
Fe289       O290   2.068       .  S
Fe289       O298   1.969       .  S
O290        C297   1.266       .  A
O291        C305   1.271       .  A
O292        C297   1.268       .  A
O293        C296   1.270       .  A
O294        C306   1.269       .  A
O295        C308   1.266       .  A
C296        O301   1.273       .  A
C296       C1302   1.430       .  S
C297       C1216   1.446       .  S
O299        C302   1.270       .  A
O300        C302   1.265       .  A
C302       C1230   1.429       .  S
O303        C308   1.271       .  A
O304        C306   1.264       .  A
C305        O307   1.269       .  A
C305       C1202   1.445       .  S
C306       C1190   1.423       .  S
C308       C1260   1.443       .  S
Fe309       O325   2.100       .  S
Fe309       O315   2.056       .  S
Fe309       O322   2.049   1_556  S
Fe309       O314   2.094       .  S
Fe309       O320   1.965       .  S
Fe310       O313   2.092       .  S
Fe310       O317   2.052       .  S
Fe310       O321   2.089       .  S
Fe310       O326   2.034       .  S
Fe310       O320   1.959       .  S
Fe311       O329   2.067       .  S
Fe311       O316   2.082       .  S
Fe311       O323   2.083       .  S
Fe311       O312   2.062       .  S
Fe311       O320   1.965       .  S
O312        C319   1.266       .  A
O313        C327   1.273       .  A
O314        C319   1.272       .  A
O315        C318   1.269       .  A
O316        C328   1.270       .  A
O317        C330   1.265       .  A
C318        O323   1.273       .  A
C318       C1484   1.433       .  S
C319       C1176   1.447   1_556  S
O321        C324   1.272   1_556  A
O322        C324   1.265       .  A
C324       C1244   1.435       .  S
O325        C330   1.274       .  A
O326        C328   1.263       .  A
C327        O329   1.269       .  A
C327       C2044   1.448       .  S
C328       C1890   1.424       .  S
C330       C1162   1.443       .  S
Fe331       O347   2.096       .  S
Fe331       O337   2.049       .  S
Fe331       O344   2.044   1_556  S
Fe331       O336   2.090       .  S
Fe331       O342   1.969       .  S
Fe332       O335   2.084       .  S
Fe332       O339   2.057       .  S
Fe332       O343   2.079       .  S
Fe332       O348   2.039       .  S
Fe332       O342   1.964       .  S
Fe333       O351   2.073       .  S
Fe333       O338   2.077       .  S
Fe333       O345   2.077       .  S
Fe333       O334   2.065       .  S
Fe333       O342   1.971       .  S
O334        C341   1.266       .  A
O335        C349   1.270       .  A
O336        C341   1.270       .  A
O337        C340   1.267       .  A
O338        C350   1.270       .  A
O339        C352   1.267       .  A
C340        O345   1.272       .  A
C340       C1412   1.427       .  S
C341       C1120   1.448   1_556  S
O343        C346   1.268   1_556  A
O344        C346   1.264       .  A
C346       C1232   1.429       .  S
O347        C352   1.274       .  A
O348        C350   1.265       .  A
C349        O351   1.269       .  A
C349       C1146   1.449       .  S
C350       C1134   1.423       .  S
C352       C1160   1.442       .  S
Fe353       O369   2.056       .  S
Fe353       O359   2.080       .  S
Fe353       O366   2.085       .  S
Fe353       O358   2.062       .  S
Fe353       O364   1.985       .  S
Fe354       O357   2.036       .  S
Fe354       O361   2.083       .  S
Fe354       O365   2.055       .  S
Fe354       O370   2.083       .  S
Fe354       O364   1.979       .  S
Fe355       O373   2.072       .  S
Fe355       O360   2.070       .  S
Fe355       O367   2.065       .  S
Fe355       O356   2.074       .  S
Fe355       O364   1.985       .  S
O356        C363   1.272       .  A
O357        C371   1.263       .  A
O358        C363   1.269       .  A
O359        C362   1.267       .  A
O360        C372   1.268       .  A
O361        C374   1.271       .  A
C362        O367   1.264       .  A
C362       C1568   1.446       .  S
C363       C1048   1.433       .  S
O365        C368   1.264       .  A
O366        C368   1.270       .  A
C368       C1104   1.440       .  S
O369        C374   1.266       .  A
O370        C372   1.271       .  A
C371        O373   1.268       .  A
C371       C1064   1.424       .  S
C372       C1076   1.448       .  S
C374       C1092   1.439       .  S
Fe375       O391   2.055       .  S
Fe375       O381   2.078       .  S
Fe375       O388   2.085       .  S
Fe375       O380   2.060       .  S
Fe375       O386   1.983       .  S
Fe376       O379   2.037       .  S
Fe376       O383   2.079       .  S
Fe376       O387   2.051       .  S
Fe376       O392   2.079       .  S
Fe376       O386   1.977       .  S
Fe377       O395   2.071       .  S
Fe377       O382   2.070       .  S
Fe377       O389   2.062       .  S
Fe377       O378   2.074       .  S
Fe377       O386   1.983       .  S
O378        C385   1.272       .  A
O379        C393   1.263       .  A
O380        C385   1.270       .  A
O381        C384   1.267       .  A
O382        C394   1.268       .  A
O383        C396   1.270       .  A
C384        O389   1.264       .  A
C384       C1330   1.442   1_565  S
C385       C1020   1.433   1_565  S
O387        C390   1.263       .  A
O388        C390   1.270       .  A
C390       C1106   1.439       .  S
O391        C396   1.266       .  A
O392        C394   1.270       .  A
C393        O395   1.267       .  A
C393       C1188   1.424       .  S
C394       C1118   1.445       .  S
C396       C1034   1.435       .  S
Fe397       O413   2.055       .  S
Fe397       O403   2.088       .  S
Fe397       O410   2.091       .  S
Fe397       O402   2.058       .  S
Fe397       O408   1.979       .  S
Fe398       O401   2.036       .  S
Fe398       O405   2.084       .  S
Fe398       O409   2.054       .  S
Fe398       O414   2.084       .  S
Fe398       O408   1.974       .  S
Fe399       O417   2.078       .  S
Fe399       O404   2.069       .  S
Fe399       O411   2.062       .  S
Fe399       O400   2.080       .  S
Fe399       O408   1.980       .  S
O400        C407   1.273       .  A
O401        C415   1.263       .  A
O402        C407   1.269       .  A
O403        C406   1.270       .  A
O404        C416   1.268       .  A
O405        C418   1.271       .  A
C406        O411   1.265       .  A
C406        C994   1.446   1_565  S
C407        C980   1.434   1_565  S
O409        C412   1.265       .  A
O410        C412   1.271       .  A
C412       C1006   1.442       .  S
O413        C418   1.266       .  A
O414        C416   1.271       .  A
C415        O417   1.269       .  A
C415       C1580   1.426       .  S
C416       C1708   1.446       .  S
C418       C1090   1.438       .  S
Fe419       O435   2.049       .  S
Fe419       O425   2.087       .  S
Fe419       O432   2.093       .  S
Fe419       O424   2.054       .  S
Fe419       O430   1.974       .  S
Fe420       O423   2.035       .  S
Fe420       O427   2.084       .  S
Fe420       O431   2.054       .  S
Fe420       O436   2.082       .  S
Fe420       O430   1.969       .  S
Fe421       O439   2.080       .  S
Fe421       O426   2.070       .  S
Fe421       O433   2.065       .  S
Fe421       O422   2.080       .  S
Fe421       O430   1.977       .  S
O422        C429   1.273       .  A
O423        C437   1.263       .  A
O424        C429   1.269       .  A
O425        C428   1.269       .  A
O426        C438   1.268       .  A
O427        C440   1.271       .  A
C428        O433   1.265       .  A
C428       C1204   1.447       .  S
C429        C966   1.430       .  S
O431        C434   1.264       .  A
O432        C434   1.271       .  A
C434       C1008   1.443       .  S
O435        C440   1.266       .  A
O436        C438   1.270       .  A
C437        O439   1.270       .  A
C437       C1344   1.425       .  S
C438       C1468   1.446       .  S
C440       C1036   1.434       .  S
Fe441       O457   2.055       .  S
Fe441       O447   2.087       .  S
Fe441       O454   2.092       .  S
Fe441       O446   2.062       .  S
Fe441       O452   1.983       .  S
Fe442       O445   2.038       .  S
Fe442       O449   2.078       .  S
Fe442       O453   2.058       .  S
Fe442       O458   2.082       .  S
Fe442       O452   1.977       .  S
Fe443       O461   2.075       .  S
Fe443       O448   2.073       .  S
Fe443       O455   2.067       .  S
Fe443       O444   2.080       .  S
Fe443       O452   1.985       .  S
O444        C451   1.273       .  A
O445        C459   1.263       .  A
O446        C451   1.269       .  A
O447        C450   1.269       .  A
O448        C460   1.269       .  A
O449        C462   1.270       .  A
C450        O455   1.265       .  A
C450       C1386   1.449       .  S
C451       C1832   1.436       .  S
O453        C456   1.265       .  A
O454        C456   1.272       .  A
C456        C950   1.446       .  S
O457        C462   1.266       .  A
O458        C460   1.271       .  A
C459        O461   1.268       .  A
C459       C1286   1.426       .  S
C460       C1174   1.447       .  S
C462        C936   1.436       .  S
Fe463       O479   2.051       .  S
Fe463       O469   2.086       .  S
Fe463       O476   2.091       .  S
Fe463       O468   2.062       .  S
Fe463       O474   1.976       .  S
Fe464       O467   2.034       .  S
Fe464       O471   2.085       .  S
Fe464       O475   2.059       .  S
Fe464       O480   2.087       .  S
Fe464       O474   1.972       .  S
Fe465       O483   2.075       .  S
Fe465       O470   2.072       .  S
Fe465       O477   2.070       .  S
Fe465       O466   2.079       .  S
Fe465       O474   1.978       .  S
O466        C473   1.272       .  A
O467        C481   1.262       .  A
O468        C473   1.270       .  A
O469        C472   1.269       .  A
O470        C482   1.270       .  A
O471        C484   1.272       .  A
C472        O477   1.266       .  A
C472       C1624   1.449       .  S
C473       C1778   1.436       .  S
O475        C478   1.265       .  A
O476        C478   1.271       .  A
C478        C952   1.446       .  S
O479        C484   1.266       .  A
O480        C482   1.273       .  A
C481        O483   1.268       .  A
C481        C910   1.424       .  S
C482        C922   1.448       .  S
C484        C896   1.434       .  S
Fe485       O501   2.055       .  S
Fe485       O491   2.084       .  S
Fe485       O498   2.091       .  S
Fe485       O490   2.065       .  S
Fe485       O496   1.977       .  S
Fe486       O489   2.035       .  S
Fe486       O493   2.087       .  S
Fe486       O497   2.061       .  S
Fe486       O502   2.087       .  S
Fe486       O496   1.974       .  S
Fe487       O505   2.077       .  S
Fe487       O492   2.070       .  S
Fe487       O499   2.062       .  S
Fe487       O488   2.082       .  S
Fe487       O496   1.980       .  S
O488        C495   1.273       .  A
O489        C503   1.262       .  A
O490        C495   1.271       .  A
O491        C494   1.268       .  A
O492        C504   1.269       .  A
O493        C506   1.272       .  A
C494        O499   1.264       .  A
C494       C1274   1.444       .  S
C495       C1972   1.438       .  S
O497        C500   1.265       .  A
O498        C500   1.271       .  A
C500        C880   1.447       .  S
O501        C506   1.267       .  A
O502        C504   1.273       .  A
C503        O505   1.268       .  A
C503       C1398   1.426       .  S
C504       C1526   1.448       .  S
C506        C938   1.438       .  S
Fe507       O523   2.052       .  S
Fe507       O513   2.083       .  S
Fe507       O520   2.090       .  S
Fe507       O512   2.058       .  S
Fe507       O518   1.982       .  S
Fe508       O511   2.034       .  S
Fe508       O515   2.078       .  S
Fe508       O519   2.061       .  S
Fe508       O524   2.083       .  S
Fe508       O518   1.977       .  S
Fe509       O527   2.077       .  S
Fe509       O514   2.073       .  S
Fe509       O521   2.069       .  S
Fe509       O510   2.080       .  S
Fe509       O518   1.985       .  S
O510        C517   1.272       .  A
O511        C525   1.261       .  A
O512        C517   1.269       .  A
O513        C516   1.269       .  A
O514        C526   1.270       .  A
O515        C528   1.270       .  A
C516        O521   1.266       .  A
C516        C866   1.448       .  S
C517       C1904   1.434       .  S
O519        C522   1.265       .  A
O520        C522   1.271       .  A
C522        C882   1.447       .  S
O523        C528   1.266       .  A
O524        C526   1.272       .  A
C525        O527   1.268       .  A
C525       C1638   1.425       .  S
C526       C1762   1.447       .  S
C528        C894   1.434       .  S
Fe529       O545   2.092       .  S
Fe529       O535   2.060   1_545  S
Fe529       O542   2.054       .  S
Fe529       O534   2.088       .  S
Fe529       O540   1.979       .  S
Fe530       O533   2.085       .  S
Fe530       O537   2.059       .  S
Fe530       O541   2.082       .  S
Fe530       O546   2.036       .  S
Fe530       O540   1.973       .  S
Fe531       O549   2.070       .  S
Fe531       O536   2.073       .  S
Fe531       O543   2.078       .  S
Fe531       O532   2.066       .  S
Fe531       O540   1.982       .  S
O532        C539   1.265       .  A
O533        C547   1.272       .  A
O534        C539   1.269       .  A
O535        C538   1.269       .  A
O536        C548   1.267       .  A
O537        C550   1.265       .  A
C538        O543   1.272   1_565  A
C538       C1594   1.434       .  S
C539       C1792   1.449   1_545  S
O541        C544   1.271       .  A
O542        C544   1.266       .  A
C544        C838   1.436       .  S
O545        C550   1.271       .  A
O546        C548   1.263       .  A
C547        O549   1.269       .  A
C547        C868   1.447       .  S
C548        C908   1.424       .  S
C550        C854   1.446       .  S
Fe551       O567   2.096       .  S
Fe551       O557   2.057       .  S
Fe551       O564   2.050       .  S
Fe551       O556   2.090       .  S
Fe551       O562   1.974       .  S
Fe552       O555   2.083       .  S
Fe552       O559   2.054       .  S
Fe552       O563   2.079       .  S
Fe552       O568   2.036       .  S
Fe552       O562   1.969       .  S
Fe553       O571   2.069       .  S
Fe553       O558   2.078       .  S
Fe553       O565   2.079       .  S
Fe553       O554   2.068       .  S
Fe553       O562   1.975       .  S
O554        C561   1.267       .  A
O555        C569   1.271       .  A
O556        C561   1.271       .  A
O557        C560   1.268       .  A
O558        C570   1.269       .  A
O559        C572   1.265       .  A
C560        O565   1.272       .  A
C560       C1540   1.433       .  S
C561        C812   1.449       .  S
O563        C566   1.270       .  A
O564        C566   1.265       .  A
C566        C826   1.432       .  S
O567        C572   1.273       .  A
O568        C570   1.263       .  A
C569        O571   1.269       .  A
C569        C992   1.445       .  S
C570       C1062   1.425       .  S
C572        C852   1.444       .  S
Fe573       O589   2.100       .  S
Fe573       O579   2.057       .  S
Fe573       O586   2.051   1_556  S
Fe573       O578   2.093       .  S
Fe573       O584   1.967       .  S
Fe574       O577   2.087       .  S
Fe574       O581   2.052       .  S
Fe574       O585   2.089       .  S
Fe574       O590   2.030       .  S
Fe574       O584   1.964       .  S
Fe575       O593   2.073       .  S
Fe575       O580   2.086       .  S
Fe575       O587   2.089       .  S
Fe575       O576   2.068       .  S
Fe575       O584   1.969       .  S
O576        C583   1.266       .  A
O577        C591   1.271       .  A
O578        C583   1.271       .  A
O579        C582   1.270       .  A
O580        C592   1.272       .  A
O581        C594   1.265       .  A
C582        O587   1.275       .  A
C582       C1722   1.436       .  S
C583        C924   1.451   1_556  S
O585        C588   1.271   1_556  A
O586        C588   1.265       .  A
C588        C840   1.436       .  S
O589        C594   1.274       .  A
O590        C592   1.263       .  A
C591        O593   1.269       .  A
C591       C1918   1.450       .  S
C592       C1806   1.424       .  S
C594        C798   1.443       .  S
Fe595       O611   2.087       .  S
Fe595       O601   2.058   1_545  S
Fe595       O608   2.052   1_556  S
Fe595       O600   2.084       .  S
Fe595       O606   1.982       .  S
Fe596       O599   2.084       .  S
Fe596       O603   2.057       .  S
Fe596       O607   2.080       .  S
Fe596       O612   2.034       .  S
Fe596       O606   1.976       .  S
Fe597       O615   2.069       .  S
Fe597       O602   2.070       .  S
Fe597       O609   2.071       .  S
Fe597       O598   2.063       .  S
Fe597       O606   1.984       .  S
O598        C605   1.265       .  A
O599        C613   1.271       .  A
O600        C605   1.269       .  A
O601        C604   1.269       .  A
O602        C614   1.267       .  A
O603        C616   1.265       .  A
C604        O609   1.271   1_565  A
C604       C1652   1.430       .  S
C605       C1078   1.447   1_546  S
O607        C610   1.270   1_556  A
O608        C610   1.266       .  A
C610        C824   1.434       .  S
O611        C616   1.270       .  A
O612        C614   1.262       .  A
C613        O615   1.268       .  A
C613        C784   1.447       .  S
C614        C768   1.422       .  S
C616        C796   1.443       .  S
Fe617       O633   2.049       .  S
Fe617       O623   2.096       .  S
Fe617       O630   2.102       .  S
Fe617       O622   2.053       .  S
Fe617       O628   1.963       .  S
Fe618       O621   2.035       .  S
Fe618       O625   2.085       .  S
Fe618       O629   2.055       .  S
Fe618       O634   2.089       .  S
Fe618       O628   1.961       .  S
Fe619       O637   2.082       .  S
Fe619       O624   2.067       .  S
Fe619       O631   2.063       .  S
Fe619       O620   2.083       .  S
Fe619       O628   1.968       .  S
O620        C627   1.273       .  A
O621        C635   1.263       .  A
O622        C627   1.268       .  A
O623        C626   1.272       .  A
O624        C636   1.269       .  A
O625        C638   1.271       .  A
C626        O631   1.266       .  A
C626        C782   1.448       .  S
C627        C978   1.432       .  S
O629        C632   1.266       .  A
O630        C632   1.274       .  A
C632        C754   1.446       .  S
O633        C638   1.265       .  A
O634        C636   1.272       .  A
C635        O637   1.270       .  A
C635       C1680   1.424       .  S
C636       C1552   1.446       .  S
C638        C740   1.432       .  S
Fe639       O655   2.048       .  S
Fe639       O645   2.089       .  S
Fe639       O652   2.093       .  S
Fe639       O644   2.050       .  S
Fe639       O650   1.970       .  S
Fe640       O643   2.038       .  S
Fe640       O647   2.086       .  S
Fe640       O651   2.059       .  S
Fe640       O656   2.082       .  S
Fe640       O650   1.966       .  S
Fe641       O659   2.075       .  S
Fe641       O646   2.066       .  S
Fe641       O653   2.066       .  S
Fe641       O642   2.081       .  S
Fe641       O650   1.974       .  S
O642        C649   1.273       .  A
O643        C657   1.264       .  A
O644        C649   1.268       .  A
O645        C648   1.269       .  A
O646        C658   1.268       .  A
O647        C660   1.272       .  A
C648        O653   1.265       .  A
C648       C1148   1.449       .  S
C649        C964   1.429       .  S
O651        C654   1.265       .  A
O652        C654   1.271       .  A
C654        C756   1.446       .  S
O655        C660   1.266       .  A
O656        C658   1.271       .  A
C657        O659   1.269       .  A
C657       C1428   1.424       .  S
C658       C1316   1.443       .  S
C660        C728   1.433       .  S
Fe661       O677   2.051   1_554  S
Fe661       O667   2.089   1_554  S
Fe661       O674   2.093       .  S
Fe661       O666   2.058       .  S
Fe661       O672   1.980       .  S
Fe662       O665   2.040       .  S
Fe662       O669   2.076   1_554  S
Fe662       O673   2.058       .  S
Fe662       O678   2.081       .  S
Fe662       O672   1.976       .  S
Fe663       O681   2.072       .  S
Fe663       O668   2.074       .  S
Fe663       O675   2.067       .  S
Fe663       O664   2.077       .  S
Fe663       O672   1.983       .  S
O664        C671   1.272       .  A
O665        C679   1.263       .  A
O666        C671   1.269       .  A
O667        C670   1.270       .  A
O668        C680   1.269       .  A
O669        C682   1.269       .  A
C670        O675   1.266   1_556  A
C670       C1692   1.450       .  S
C671       C1050   1.434       .  S
O673        C676   1.265       .  A
O674        C676   1.272       .  A
C676        C712   1.446       .  S
O677        C682   1.265       .  A
O678        C680   1.271       .  A
C679        O681   1.268       .  A
C679        C770   1.425       .  S
C680        C810   1.448       .  S
C682        C742   1.431       .  S
Fe683       O699   2.053   1_554  S
Fe683       O689   2.092   1_554  S
Fe683       O696   2.095       .  S
Fe683       O688   2.057       .  S
Fe683       O694   1.977       .  S
Fe684       O687   2.036       .  S
Fe684       O691   2.081   1_554  S
Fe684       O695   2.055       .  S
Fe684       O700   2.086       .  S
Fe684       O694   1.972       .  S
Fe685       O703   2.079       .  S
Fe685       O690   2.068       .  S
Fe685       O697   2.063       .  S
Fe685       O686   2.080       .  S
Fe685       O694   1.978       .  S
O686        C693   1.272       .  A
O687        C701   1.262       .  A
O688        C693   1.268       .  A
O689        C692   1.271       .  A
O690        C702   1.269       .  A
O691        C704   1.270       .  A
C692        O697   1.266   1_556  A
C692       C1440   1.448       .  S
C693       C1022   1.434       .  S
O695        C698   1.265       .  A
O696        C698   1.272       .  A
C698        C714   1.445       .  S
O699        C704   1.266       .  A
O700        C702   1.272       .  A
C701        O703   1.269       .  A
C701       C1132   1.426       .  S
C702       C1218   1.445       .  S
C704        C726   1.435       .  S
C705        C713   1.450       .  S
C705        C706   1.402       .  A
C705        C710   1.404       .  A
C706        C707   1.400       .  A
C706        H715   1.083       .  S
C707        C708   1.402       .  A
C707        H716   1.084       .  S
C708        C711   1.451       .  S
C708        C709   1.405       .  A
C709        C710   1.406       .  A
C709        H717   1.083       .  S
C710        H718   1.083       .  S
C711        C712   1.213       .  T
C713        C714   1.212       .  T
C719        C727   1.439       .  S
C719        C720   1.401       .  A
C719        C724   1.401       .  A
C720        C721   1.400       .  A
C720        H729   1.083       .  S
C721        C722   1.402       .  A
C721        H730   1.083       .  S
C722        C725   1.440       .  S
C722        C723   1.400       .  A
C723        C724   1.397       .  A
C723        H731   1.084       .  S
C724        H732   1.084       .  S
C725        C726   1.206       .  T
C727        C728   1.205       .  T
C733        C741   1.436       .  S
C733        C734   1.401       .  A
C733        C738   1.400       .  A
C734        C735   1.398       .  A
C734        H743   1.084       .  S
C735        C736   1.400       .  A
C735        H744   1.084       .  S
C736        C739   1.437       .  S
C736        C737   1.401       .  A
C737        C738   1.397       .  A
C737        H745   1.084       .  S
C738        H746   1.084       .  S
C739        C740   1.204       .  T
C741        C742   1.204       .  T
C747        C755   1.451       .  S
C747        C748   1.403       .  A
C747        C752   1.403       .  A
C748        C749   1.402       .  A
C748        H757   1.083       .  S
C749        C750   1.401       .  A
C749        H758   1.084       .  S
C750        C753   1.451       .  S
C750        C751   1.405       .  A
C751        C752   1.405       .  A
C751        H759   1.083       .  S
C752        H760   1.083       .  S
C753        C754   1.213       .  T
C755        C756   1.213       .  T
C761        C769   1.431       .  S
C761        C762   1.398       .  A
C761        C766   1.402   1_556  A
C762        C763   1.396       .  A
C762        H771   1.084       .  S
C763        C764   1.402       .  A
C763        H772   1.084       .  S
C764        C767   1.431       .  S
C764        C765   1.398   1_556  A
C765        C766   1.395       .  A
C765        H773   1.084       .  S
C766        H774   1.084       .  S
C767        C768   1.199       .  T
C769        C770   1.200   1_556  T
C775        C783   1.452       .  S
C775        C776   1.403       .  A
C775        C780   1.404       .  A
C776        C777   1.402       .  A
C776        H785   1.083       .  S
C777        C778   1.403       .  A
C777        H786   1.083       .  S
C778        C781   1.452       .  S
C778        C779   1.404       .  A
C779        C780   1.405       .  A
C779        H787   1.083       .  S
C780        H788   1.083       .  S
C781        C782   1.213       .  T
C783        C784   1.213       .  T
C789        C797   1.448       .  S
C789        C790   1.401       .  A
C789        C794   1.404       .  A
C790        C791   1.402       .  A
C790        H799   1.084       .  S
C791        C792   1.404       .  A
C791        H800   1.083       .  S
C792        C795   1.449       .  S
C792        C793   1.402       .  A
C793        C794   1.403       .  A
C793        H801   1.084       .  S
C794        H802   1.083       .  S
C795        C796   1.211       .  T
C797        C798   1.211       .  T
C803        C811   1.453       .  S
C803        C804   1.403       .  A
C803        C808   1.404       .  A
C804        C805   1.403       .  A
C804        H813   1.084       .  S
C805        C806   1.404       .  A
C805        H814   1.083       .  S
C806        C809   1.453       .  S
C806        C807   1.403       .  A
C807        C808   1.405       .  A
C807        H815   1.083       .  S
C808        H816   1.083       .  S
C809        C810   1.214       .  T
C811        C812   1.214       .  T
C817        C825   1.438       .  S
C817        C818   1.401       .  A
C817        C822   1.401       .  A
C818        C819   1.398       .  A
C818        H827   1.084       .  S
C819        C820   1.400       .  A
C819        H828   1.083       .  S
C820        C823   1.438       .  S
C820        C821   1.402       .  A
C821        C822   1.399       .  A
C821        H829   1.083       .  S
C822        H830   1.083       .  S
C823        C824   1.205       .  T
C825        C826   1.204       .  T
C831        C839   1.441       .  S
C831        C832   1.401       .  A
C831        C836   1.402       .  A
C832        C833   1.398       .  A
C832        H841   1.084       .  S
C833        C834   1.401       .  A
C833        H842   1.084       .  S
C834        C837   1.441       .  S
C834        C835   1.403       .  A
C835        C836   1.401       .  A
C835        H843   1.083       .  S
C836        H844   1.083       .  S
C837        C838   1.207       .  T
C839        C840   1.207       .  T
C845        C853   1.451       .  S
C845        C846   1.404       .  A
C845        C850   1.403       .  A
C846        C847   1.403       .  A
C846        H855   1.083       .  S
C847        C848   1.402       .  A
C847        H856   1.083       .  S
C848        C851   1.450       .  S
C848        C849   1.404       .  A
C849        C850   1.403       .  A
C849        H857   1.083       .  S
C850        H858   1.084       .  S
C851        C852   1.212       .  T
C853        C854   1.213       .  T
C859        C867   1.453       .  S
C859        C860   1.404       .  A
C859        C864   1.403       .  A
C860        C861   1.404   1_455  A
C860        H869   1.083       .  S
C861        C862   1.403       .  A
C861        H870   1.084       .  S
C862        C865   1.453       .  S
C862        C863   1.404       .  A
C863        C864   1.404   1_655  A
C863        H871   1.083       .  S
C864        H872   1.083       .  S
C865        C866   1.214       .  T
C867        C868   1.214       .  T
C873        C881   1.453       .  S
C873        C874   1.405       .  A
C873        C878   1.403       .  A
C874        C875   1.404       .  A
C874        H883   1.083       .  S
C875        C876   1.403       .  A
C875        H884   1.084       .  S
C876        C879   1.453       .  S
C876        C877   1.404       .  A
C877        C878   1.404       .  A
C877        H885   1.083       .  S
C878        H886   1.084       .  S
C879        C880   1.214       .  T
C881        C882   1.214       .  T
C887        C895   1.439       .  S
C887        C888   1.400       .  A
C887        C892   1.402       .  A
C888        C889   1.398       .  A
C888        H897   1.084       .  S
C889        C890   1.402       .  A
C889        H898   1.084       .  S
C890        C893   1.439       .  S
C890        C891   1.401       .  A
C891        C892   1.399       .  A
C891        H899   1.083       .  S
C892        H900   1.083       .  S
C893        C894   1.205       .  T
C895        C896   1.205       .  T
C901        C909   1.432       .  S
C901        C902   1.398   1_655  A
C901        C906   1.402       .  A
C902        C903   1.396       .  A
C902        H911   1.084       .  S
C903        C904   1.402   1_455  A
C903        H912   1.084       .  S
C904        C907   1.431       .  S
C904        C905   1.398       .  A
C905        C906   1.395       .  A
C905        H913   1.084       .  S
C906        H914   1.084       .  S
C907        C908   1.200   1_655  T
C909        C910   1.200       .  T
C915        C923   1.455   1_655  S
C915        C916   1.404       .  A
C915        C920   1.404       .  A
C916        C917   1.405       .  A
C916        H925   1.083   1_655  S
C917        C918   1.404       .  A
C917        H926   1.083       .  S
C918        C921   1.454       .  S
C918        C919   1.404       .  A
C919        C920   1.404       .  A
C919        H927   1.083       .  S
C920        H928   1.083       .  S
C921        C922   1.214       .  T
C923        C924   1.215       .  T
C929        C937   1.442       .  S
C929        C930   1.402       .  A
C929        C934   1.401       .  A
C930        C931   1.399       .  A
C930        H939   1.084       .  S
C931        C932   1.401       .  A
C931        H940   1.083       .  S
C932        C935   1.441       .  S
C932        C933   1.402       .  A
C933        C934   1.400       .  A
C933        H941   1.083       .  S
C934        H942   1.083       .  S
C935        C936   1.206       .  T
C937        C938   1.208       .  T
C943        C951   1.452       .  S
C943        C944   1.403       .  A
C943        C948   1.404       .  A
C944        C945   1.403       .  A
C944        H953   1.084       .  S
C945        C946   1.405       .  A
C945        H954   1.083       .  S
C946        C949   1.452       .  S
C946        C947   1.402       .  A
C947        C948   1.404       .  A
C947        H955   1.083       .  S
C948        H956   1.083       .  S
C949        C950   1.213       .  T
C951        C952   1.213       .  T
C957        C965   1.435       .  S
C957        C958   1.399       .  A
C957        C962   1.402       .  A
C958        C959   1.395       .  A
C958        H967   1.084       .  S
C959        C960   1.400       .  A
C959        H968   1.084       .  S
C960        C963   1.434       .  S
C960        C961   1.401       .  A
C961        C962   1.399       .  A
C961        H969   1.083       .  S
C962        H970   1.084       .  S
C963        C964   1.202       .  T
C965        C966   1.203       .  T
C971        C979   1.439       .  S
C971        C972   1.402       .  A
C971        C976   1.401       .  A
C972        C973   1.398       .  A
C972        H981   1.084       .  S
C973        C974   1.400       .  A
C973        H982   1.084       .  S
C974        C977   1.438       .  S
C974        C975   1.402       .  A
C975        C976   1.399       .  A
C975        H983   1.084       .  S
C976        H984   1.083       .  S
C977        C978   1.205       .  T
C979        C980   1.206       .  T
C985        C993   1.451       .  S
C985        C986   1.402       .  A
C985        C990   1.404       .  A
C986        C987   1.403       .  A
C986        H995   1.083       .  S
C987        C988   1.404       .  A
C987        H996   1.083       .  S
C988        C991   1.450       .  S
C988        C989   1.403       .  A
C989        C990   1.404       .  A
C989        H997   1.083       .  S
C990        H998   1.083       .  S
C991        C992   1.212       .  T
C993        C994   1.213       .  T
C999       C1007   1.448       .  S
C999       C1000   1.404       .  A
C999       C1004   1.402       .  A
C1000      C1001   1.402       .  A
C1000      H1009   1.083       .  S
C1001      C1002   1.402       .  A
C1001      H1010   1.084       .  S
C1002      C1005   1.448       .  S
C1002      C1003   1.404       .  A
C1003      C1004   1.402       .  A
C1003      H1011   1.083       .  S
C1004      H1012   1.084       .  S
C1005      C1006   1.211       .  T
C1007      C1008   1.211       .  T
C1013      C1021   1.439       .  S
C1013      C1014   1.402       .  A
C1013      C1018   1.400       .  A
C1014      C1015   1.399       .  A
C1014      H1023   1.083       .  S
C1015      C1016   1.400       .  A
C1015      H1024   1.084       .  S
C1016      C1019   1.438       .  S
C1016      C1017   1.402       .  A
C1017      C1018   1.398       .  A
C1017      H1025   1.083       .  S
C1018      H1026   1.083       .  S
C1019      C1020   1.205       .  T
C1021      C1022   1.205       .  T
C1027      C1035   1.439       .  S
C1027      C1028   1.400       .  A
C1027      C1032   1.402       .  A
C1028      C1029   1.397       .  A
C1028      H1037   1.084       .  S
C1029      C1030   1.401       .  A
C1029      H1038   1.084       .  S
C1030      C1033   1.440       .  S
C1030      C1031   1.402       .  A
C1031      C1032   1.401       .  A
C1031      H1039   1.083       .  S
C1032      H1040   1.083       .  S
C1033      C1034   1.206       .  T
C1035      C1036   1.205       .  T
C1041      C1049   1.439       .  S
C1041      C1042   1.400       .  A
C1041      C1046   1.402       .  A
C1042      C1043   1.398       .  A
C1042      H1051   1.084       .  S
C1043      C1044   1.402       .  A
C1043      H1052   1.084       .  S
C1044      C1047   1.438       .  S
C1044      C1045   1.401       .  A
C1045      C1046   1.399       .  A
C1045      H1053   1.083       .  S
C1046      H1054   1.083       .  S
C1047      C1048   1.205       .  T
C1049      C1050   1.205       .  T
C1055      C1063   1.432       .  S
C1055      C1056   1.398       .  A
C1055      C1060   1.403       .  A
C1056      C1057   1.397   1_565  A
C1056      H1065   1.084       .  S
C1057      C1058   1.403       .  A
C1057      H1066   1.084       .  S
C1058      C1061   1.433       .  S
C1058      C1059   1.397       .  A
C1059      C1060   1.396   1_545  A
C1059      H1067   1.084       .  S
C1060      H1068   1.084       .  S
C1061      C1062   1.201       .  T
C1063      C1064   1.200       .  T
C1069      C1077   1.451       .  S
C1069      C1070   1.404       .  A
C1069      C1074   1.403       .  A
C1070      C1071   1.405       .  A
C1070      H1079   1.083       .  S
C1071      C1072   1.404       .  A
C1071      H1080   1.083       .  S
C1072      C1075   1.453       .  S
C1072      C1073   1.404       .  A
C1073      C1074   1.403       .  A
C1073      H1081   1.083       .  S
C1074      H1082   1.083       .  S
C1075      C1076   1.214       .  T
C1077      C1078   1.213       .  T
C1083      C1091   1.443       .  S
C1083      C1084   1.403       .  A
C1083      C1088   1.401       .  A
C1084      C1085   1.403       .  A
C1084      H1093   1.083       .  S
C1085      C1086   1.403       .  A
C1085      H1094   1.083       .  S
C1086      C1089   1.443       .  S
C1086      C1087   1.401       .  A
C1087      C1088   1.398       .  A
C1087      H1095   1.084       .  S
C1088      H1096   1.084       .  S
C1089      C1090   1.208       .  T
C1091      C1092   1.208       .  T
C1097      C1105   1.445       .  S
C1097      C1098   1.404       .  A
C1097      C1102   1.401       .  A
C1098      C1099   1.401       .  A
C1098      H1107   1.083       .  S
C1099      C1100   1.401       .  A
C1099      H1108   1.084       .  S
C1100      C1103   1.445       .  S
C1100      C1101   1.404       .  A
C1101      C1102   1.401       .  A
C1101      H1109   1.083       .  S
C1102      H1110   1.083       .  S
C1103      C1104   1.209       .  T
C1105      C1106   1.209       .  T
C1111      C1119   1.452       .  S
C1111      C1112   1.403       .  A
C1111      C1116   1.404       .  A
C1112      C1113   1.403       .  A
C1112      H1121   1.083       .  S
C1113      C1114   1.403       .  A
C1113      H1122   1.084       .  S
C1114      C1117   1.451       .  S
C1114      C1115   1.404       .  A
C1115      C1116   1.404       .  A
C1115      H1123   1.083       .  S
C1116      H1124   1.083       .  S
C1117      C1118   1.212       .  T
C1119      C1120   1.213       .  T
C1125      C1133   1.431       .  S
C1125      C1126   1.403       .  A
C1125      C1130   1.397   1_556  A
C1126      C1127   1.397       .  A
C1126      H1135   1.084       .  S
C1127      C1128   1.399       .  A
C1127      H1136   1.083       .  S
C1128      C1131   1.433       .  S
C1128      C1129   1.402   1_556  A
C1129      C1130   1.395       .  A
C1129      H1137   1.084       .  S
C1130      H1138   1.084       .  S
C1131      C1132   1.201   1_556  T
C1133      C1134   1.200       .  T
C1139      C1147   1.453       .  S
C1139      C1140   1.404       .  A
C1139      C1144   1.404       .  A
C1140      C1141   1.405       .  A
C1140      H1149   1.083       .  S
C1141      C1142   1.405       .  A
C1141      H1150   1.083       .  S
C1142      C1145   1.454       .  S
C1142      C1143   1.403       .  A
C1143      C1144   1.404       .  A
C1143      H1151   1.083       .  S
C1144      H1152   1.083       .  S
C1145      C1146   1.215       .  T
C1147      C1148   1.214       .  T
C1153      C1161   1.448       .  S
C1153      C1154   1.404       .  A
C1153      C1158   1.401       .  A
C1154      C1155   1.403       .  A
C1154      H1163   1.083       .  S
C1155      C1156   1.402       .  A
C1155      H1164   1.084       .  S
C1156      C1159   1.448       .  S
C1156      C1157   1.404       .  A
C1157      C1158   1.402       .  A
C1157      H1165   1.083       .  S
C1158      H1166   1.084       .  S
C1159      C1160   1.211       .  T
C1161      C1162   1.211       .  T
C1167      C1175   1.452       .  S
C1167      C1168   1.404       .  A
C1167      C1172   1.403       .  A
C1168      C1169   1.405       .  A
C1168      H1177   1.083       .  S
C1169      C1170   1.403       .  A
C1169      H1178   1.083       .  S
C1170      C1173   1.452       .  S
C1170      C1171   1.404       .  A
C1171      C1172   1.403       .  A
C1171      H1179   1.083       .  S
C1172      H1180   1.083       .  S
C1173      C1174   1.213       .  T
C1175      C1176   1.213       .  T
C1181      C1189   1.431       .  S
C1181      C1182   1.400       .  A
C1181      C1186   1.400       .  A
C1182      C1183   1.396       .  A
C1182      H1191   1.084       .  S
C1183      C1184   1.400       .  A
C1183      H1192   1.084       .  S
C1184      C1187   1.431       .  S
C1184      C1185   1.400       .  A
C1185      C1186   1.396       .  A
C1185      H1193   1.084       .  S
C1186      H1194   1.084       .  S
C1187      C1188   1.200       .  T
C1189      C1190   1.200       .  T
C1195      C1203   1.451       .  S
C1195      C1196   1.404       .  A
C1195      C1200   1.403       .  A
C1196      C1197   1.404       .  A
C1196      H1205   1.083       .  S
C1197      C1198   1.403       .  A
C1197      H1206   1.083       .  S
C1198      C1201   1.451       .  S
C1198      C1199   1.403       .  A
C1199      C1200   1.403       .  A
C1199      H1207   1.083       .  S
C1200      H1208   1.083       .  S
C1201      C1202   1.212       .  T
C1203      C1204   1.213       .  T
C1209      C1217   1.451       .  S
C1209      C1210   1.404       .  A
C1209      C1214   1.403       .  A
C1210      C1211   1.402       .  A
C1210      H1219   1.083       .  S
C1211      C1212   1.402       .  A
C1211      H1220   1.084       .  S
C1212      C1215   1.451       .  S
C1212      C1213   1.404       .  A
C1213      C1214   1.404       .  A
C1213      H1221   1.083       .  S
C1214      H1222   1.083       .  S
C1215      C1216   1.212       .  T
C1217      C1218   1.212       .  T
C1223      C1231   1.434       .  S
C1223      C1224   1.400       .  A
C1223      C1228   1.400       .  A
C1224      C1225   1.398       .  A
C1224      H1233   1.083       .  S
C1225      C1226   1.401       .  A
C1225      H1234   1.083       .  S
C1226      C1229   1.434       .  S
C1226      C1227   1.399       .  A
C1227      C1228   1.395       .  A
C1227      H1235   1.084       .  S
C1228      H1236   1.084       .  S
C1229      C1230   1.203       .  T
C1231      C1232   1.202       .  T
C1237      C1245   1.439       .  S
C1237      C1238   1.401       .  A
C1237      C1242   1.401       .  A
C1238      C1239   1.397       .  A
C1238      H1247   1.084       .  S
C1239      C1240   1.400       .  A
C1239      H1248   1.084       .  S
C1240      C1243   1.439       .  S
C1240      C1241   1.402       .  A
C1241      C1242   1.400       .  A
C1241      H1249   1.083       .  S
C1242      H1250   1.083       .  S
C1243      C1244   1.206       .  T
C1245      C1246   1.205       .  T
C1251      C1259   1.449       .  S
C1251      C1252   1.402       .  A
C1251      C1256   1.403       .  A
C1252      C1253   1.404       .  A
C1252      H1261   1.083       .  S
C1253      C1254   1.405       .  A
C1253      H1262   1.083       .  S
C1254      C1257   1.449       .  S
C1254      C1255   1.401       .  A
C1255      C1256   1.401       .  A
C1255      H1263   1.084       .  S
C1256      H1264   1.083       .  S
C1257      C1258   1.211       .  T
C1259      C1260   1.211       .  T
C1265      C1273   1.449       .  S
C1265      C1266   1.402       .  A
C1265      C1270   1.403       .  A
C1266      C1267   1.402       .  A
C1266      H1275   1.083       .  S
C1267      C1268   1.403       .  A
C1267      H1276   1.083       .  S
C1268      C1271   1.449       .  S
C1268      C1269   1.403       .  A
C1269      C1270   1.403       .  A
C1269      H1277   1.083       .  S
C1270      H1278   1.083       .  S
C1271      C1272   1.212       .  T
C1273      C1274   1.211       .  T
C1279      C1287   1.432       .  S
C1279      C1280   1.401       .  A
C1279      C1284   1.399       .  A
C1280      C1281   1.396       .  A
C1280      H1289   1.084       .  S
C1281      C1282   1.399       .  A
C1281      H1290   1.083       .  S
C1282      C1285   1.433       .  S
C1282      C1283   1.402       .  A
C1283      C1284   1.397       .  A
C1283      H1291   1.084       .  S
C1284      H1292   1.084       .  S
C1285      C1286   1.201       .  T
C1287      C1288   1.200       .  T
C1293      C1301   1.435       .  S
C1293      C1294   1.400       .  A
C1293      C1298   1.401       .  A
C1294      C1295   1.397       .  A
C1294      H1303   1.083       .  S
C1295      C1296   1.400       .  A
C1295      H1304   1.083       .  S
C1296      C1299   1.435       .  S
C1296      C1297   1.401       .  A
C1297      C1298   1.397       .  A
C1297      H1305   1.084       .  S
C1298      H1306   1.084       .  S
C1299      C1300   1.203       .  T
C1301      C1302   1.203       .  T
C1307      C1315   1.448       .  S
C1307      C1308   1.402       .  A
C1307      C1312   1.403       .  A
C1308      C1309   1.403       .  A
C1308      H1317   1.083       .  S
C1309      C1310   1.404       .  A
C1309      H1318   1.083       .  S
C1310      C1313   1.447       .  S
C1310      C1311   1.401       .  A
C1311      C1312   1.401       .  A
C1311      H1319   1.084       .  S
C1312      H1320   1.083       .  S
C1313      C1314   1.210       .  T
C1315      C1316   1.211       .  T
C1321      C1329   1.447       .  S
C1321      C1322   1.402       .  A
C1321      C1326   1.403       .  A
C1322      C1323   1.401       .  A
C1322      H1331   1.083       .  S
C1323      C1324   1.402       .  A
C1323      H1332   1.084       .  S
C1324      C1327   1.446       .  S
C1324      C1325   1.403       .  A
C1325      C1326   1.403       .  A
C1325      H1333   1.083       .  S
C1326      H1334   1.083       .  S
C1327      C1328   1.210       .  T
C1329      C1330   1.210       .  T
C1335      C1343   1.433       .  S
C1335      C1336   1.402       .  A
C1335      C1340   1.399       .  A
C1336      C1337   1.396   1_565  A
C1336      H1345   1.084       .  S
C1337      C1338   1.398       .  A
C1337      H1346   1.084       .  S
C1338      C1341   1.432       .  S
C1338      C1339   1.402       .  A
C1339      C1340   1.397   1_545  A
C1339      H1347   1.084       .  S
C1340      H1348   1.084       .  S
C1341      C1342   1.201       .  T
C1343      C1344   1.201       .  T
C1349      C1357   1.435       .  S
C1349      C1350   1.400       .  A
C1349      C1354   1.401       .  A
C1350      C1351   1.397       .  A
C1350      H1359   1.083       .  S
C1351      C1352   1.401       .  A
C1351      H1360   1.084       .  S
C1352      C1355   1.434       .  S
C1352      C1353   1.399       .  A
C1353      C1354   1.397       .  A
C1353      H1361   1.084       .  S
C1354      H1362   1.084       .  S
C1355      C1356   1.202       .  T
C1357      C1358   1.203       .  T
C1363      C1371   1.446       .  S
C1363      C1364   1.404       .  A
C1363      C1368   1.401       .  A
C1364      C1365   1.402       .  A
C1364      H1373   1.083       .  S
C1365      C1366   1.401       .  A
C1365      H1374   1.084       .  S
C1366      C1369   1.445       .  S
C1366      C1367   1.403       .  A
C1367      C1368   1.401       .  A
C1367      H1375   1.083       .  S
C1368      H1376   1.084       .  S
C1369      C1370   1.209       .  T
C1371      C1372   1.210       .  T
C1377      C1385   1.454       .  S
C1377      C1378   1.403       .  A
C1377      C1382   1.405       .  A
C1378      C1379   1.403       .  A
C1378      H1387   1.083       .  S
C1379      C1380   1.404       .  A
C1379      H1388   1.083       .  S
C1380      C1383   1.454       .  S
C1380      C1381   1.404       .  A
C1381      C1382   1.406       .  A
C1381      H1389   1.083       .  S
C1382      H1390   1.083       .  S
C1383      C1384   1.214       .  T
C1385      C1386   1.214       .  T
C1391      C1399   1.431       .  S
C1391      C1392   1.400       .  A
C1391      C1396   1.400       .  A
C1392      C1393   1.396       .  A
C1392      H1401   1.084       .  S
C1393      C1394   1.401       .  A
C1393      H1402   1.084       .  S
C1394      C1397   1.433       .  S
C1394      C1395   1.400       .  A
C1395      C1396   1.396       .  A
C1395      H1403   1.084       .  S
C1396      H1404   1.084       .  S
C1397      C1398   1.201       .  T
C1399      C1400   1.200       .  T
C1405      C1413   1.432       .  S
C1405      C1406   1.400       .  A
C1405      C1410   1.400       .  A
C1406      C1407   1.397       .  A
C1406      H1415   1.084       .  S
C1407      C1408   1.401       .  A
C1407      H1416   1.084       .  S
C1408      C1411   1.432       .  S
C1408      C1409   1.399       .  A
C1409      C1410   1.394       .  A
C1409      H1417   1.084       .  S
C1410      H1418   1.084       .  S
C1411      C1412   1.201       .  T
C1413      C1414   1.201       .  T
C1419      C1427   1.431       .  S
C1419      C1420   1.398       .  A
C1419      C1424   1.402       .  A
C1420      C1421   1.395       .  A
C1420      H1429   1.084       .  S
C1421      C1422   1.402       .  A
C1421      H1430   1.084       .  S
C1422      C1425   1.430       .  S
C1422      C1423   1.398       .  A
C1423      C1424   1.395       .  A
C1423      H1431   1.084       .  S
C1424      H1432   1.084       .  S
C1425      C1426   1.199       .  T
C1427      C1428   1.200       .  T
C1433      C1441   1.453       .  S
C1433      C1434   1.403       .  A
C1433      C1438   1.404       .  A
C1434      C1435   1.405       .  A
C1434      H1443   1.083       .  S
C1435      C1436   1.405       .  A
C1435      H1444   1.083       .  S
C1436      C1439   1.453       .  S
C1436      C1437   1.402       .  A
C1437      C1438   1.403       .  A
C1437      H1445   1.083       .  S
C1438      H1446   1.083       .  S
C1439      C1440   1.214       .  T
C1441      C1442   1.213       .  T
C1447      C1455   1.438       .  S
C1447      C1448   1.402       .  A
C1447      C1452   1.400       .  A
C1448      C1449   1.398       .  A
C1448      H1457   1.084       .  S
C1449      C1450   1.401       .  A
C1449      H1458   1.084       .  S
C1450      C1453   1.438       .  S
C1450      C1451   1.401       .  A
C1451      C1452   1.398       .  A
C1451      H1459   1.083       .  S
C1452      H1460   1.083       .  S
C1453      C1454   1.205       .  T
C1455      C1456   1.205       .  T
C1461      C1469   1.450       .  S
C1461      C1462   1.402       .  A
C1461      C1466   1.404       .  A
C1462      C1463   1.402       .  A
C1462      H1471   1.083       .  S
C1463      C1464   1.403       .  A
C1463      H1472   1.083       .  S
C1464      C1467   1.451       .  S
C1464      C1465   1.403       .  A
C1465      C1466   1.405       .  A
C1465      H1473   1.083       .  S
C1466      H1474   1.083       .  S
C1467      C1468   1.213       .  T
C1469      C1470   1.212       .  T
C1475      C1483   1.438       .  S
C1475      C1476   1.401       .  A
C1475      C1480   1.401       .  A
C1476      C1477   1.399       .  A
C1476      H1485   1.083       .  S
C1477      C1478   1.401       .  A
C1477      H1486   1.084       .  S
C1478      C1481   1.438       .  S
C1478      C1479   1.401       .  A
C1479      C1480   1.397       .  A
C1479      H1487   1.084       .  S
C1480      H1488   1.084       .  S
C1481      C1482   1.205       .  T
C1483      C1484   1.205       .  T
C1489      C1497   1.441       .  S
C1489      C1490   1.400       .  A
C1489      C1494   1.403       .  A
C1490      C1491   1.398       .  A
C1490      H1499   1.084       .  S
C1491      C1492   1.401       .  A
C1491      H1500   1.084       .  S
C1492      C1495   1.440       .  S
C1492      C1493   1.402       .  A
C1493      C1494   1.401       .  A
C1493      H1501   1.083       .  S
C1494      H1502   1.083       .  S
C1495      C1496   1.206       .  T
C1497      C1498   1.206       .  T
C1503      C1511   1.446       .  S
C1503      C1504   1.403       .  A
C1503      C1508   1.402       .  A
C1504      C1505   1.402       .  A
C1504      H1513   1.083       .  S
C1505      C1506   1.401       .  A
C1505      H1514   1.083       .  S
C1506      C1509   1.447       .  S
C1506      C1507   1.404       .  A
C1507      C1508   1.401       .  A
C1507      H1515   1.083       .  S
C1508      H1516   1.084       .  S
C1509      C1510   1.210       .  T
C1511      C1512   1.209       .  T
C1517      C1525   1.453       .  S
C1517      C1518   1.404       .  A
C1517      C1522   1.403       .  A
C1518      C1519   1.405       .  A
C1518      H1527   1.084       .  S
C1519      C1520   1.404       .  A
C1519      H1528   1.083       .  S
C1520      C1523   1.454       .  S
C1520      C1521   1.404       .  A
C1521      C1522   1.404       .  A
C1521      H1529   1.083       .  S
C1522      H1530   1.083       .  S
C1523      C1524   1.214       .  T
C1525      C1526   1.214       .  T
C1531      C1539   1.438       .  S
C1531      C1532   1.402       .  A
C1531      C1536   1.400       .  A
C1532      C1533   1.399       .  A
C1532      H1541   1.084       .  S
C1533      C1534   1.401       .  A
C1533      H1542   1.083       .  S
C1534      C1537   1.438       .  S
C1534      C1535   1.401       .  A
C1535      C1536   1.398       .  A
C1535      H1543   1.084       .  S
C1536      H1544   1.084       .  S
C1537      C1538   1.205       .  T
C1539      C1540   1.205       .  T
C1545      C1553   1.453       .  S
C1545      C1546   1.403       .  A
C1545      C1550   1.405       .  A
C1546      C1547   1.403       .  A
C1546      H1555   1.083       .  S
C1547      C1548   1.404       .  A
C1547      H1556   1.083       .  S
C1548      C1551   1.452       .  S
C1548      C1549   1.403       .  A
C1549      C1550   1.405       .  A
C1549      H1557   1.083       .  S
C1550      H1558   1.083       .  S
C1551      C1552   1.213       .  T
C1553      C1554   1.214       .  T
C1559      C1567   1.450       .  S
C1559      C1560   1.403       .  A
C1559      C1564   1.404       .  A
C1560      C1561   1.403       .  A
C1560      H1569   1.084       .  S
C1561      C1562   1.404       .  A
C1561      H1570   1.083       .  S
C1562      C1565   1.451       .  S
C1562      C1563   1.403       .  A
C1563      C1564   1.404       .  A
C1563      H1571   1.083       .  S
C1564      H1572   1.083       .  S
C1565      C1566   1.212       .  T
C1567      C1568   1.212       .  T
C1573      C1581   1.433       .  S
C1573      C1574   1.402       .  A
C1573      C1578   1.399       .  A
C1574      C1575   1.397       .  A
C1574      H1583   1.084       .  S
C1575      C1576   1.400       .  A
C1575      H1584   1.084       .  S
C1576      C1579   1.433       .  S
C1576      C1577   1.401       .  A
C1577      C1578   1.396       .  A
C1577      H1585   1.084       .  S
C1578      H1586   1.084       .  S
C1579      C1580   1.201       .  T
C1581      C1582   1.201       .  T
C1587      C1595   1.439       .  S
C1587      C1588   1.400       .  A
C1587      C1592   1.402       .  A
C1588      C1589   1.397       .  A
C1588      H1597   1.084       .  S
C1589      C1590   1.401       .  A
C1589      H1598   1.084       .  S
C1590      C1593   1.439       .  S
C1590      C1591   1.401       .  A
C1591      C1592   1.400       .  A
C1591      H1599   1.083       .  S
C1592      H1600   1.084       .  S
C1593      C1594   1.205       .  T
C1595      C1596   1.205       .  T
C1601      C1609   1.451       .  S
C1601      C1602   1.405       .  A
C1601      C1606   1.402       .  A
C1602      C1603   1.404       .  A
C1602      H1611   1.083       .  S
C1603      C1604   1.402       .  A
C1603      H1612   1.084       .  S
C1604      C1607   1.450       .  S
C1604      C1605   1.404       .  A
C1605      C1606   1.403       .  A
C1605      H1613   1.083       .  S
C1606      H1614   1.084       .  S
C1607      C1608   1.212       .  T
C1609      C1610   1.212       .  T
C1615      C1623   1.454       .  S
C1615      C1616   1.403   1_655  A
C1615      C1620   1.404       .  A
C1616      C1617   1.404       .  A
C1616      H1625   1.084       .  S
C1617      C1618   1.404       .  A
C1617      H1626   1.083       .  S
C1618      C1621   1.454       .  S
C1618      C1619   1.404       .  A
C1619      C1620   1.405   1_455  A
C1619      H1627   1.083       .  S
C1620      H1628   1.083       .  S
C1621      C1622   1.214       .  T
C1623      C1624   1.214       .  T
C1629      C1637   1.433       .  S
C1629      C1630   1.400       .  A
C1629      C1634   1.401   1_655  A
C1630      C1631   1.396       .  A
C1630      H1639   1.084       .  S
C1631      C1632   1.400       .  A
C1631      H1640   1.084       .  S
C1632      C1635   1.432       .  S
C1632      C1633   1.401   1_655  A
C1633      C1634   1.397       .  A
C1633      H1641   1.084       .  S
C1634      H1642   1.084       .  S
C1635      C1636   1.200   1_655  T
C1637      C1638   1.201       .  T
C1643      C1651   1.436       .  S
C1643      C1644   1.401       .  A
C1643      C1648   1.400       .  A
C1644      C1645   1.397       .  A
C1644      H1653   1.084       .  S
C1645      C1646   1.400       .  A
C1645      H1654   1.084       .  S
C1646      C1649   1.436       .  S
C1646      C1647   1.402       .  A
C1647      C1648   1.398       .  A
C1647      H1655   1.084       .  S
C1648      H1656   1.084       .  S
C1649      C1650   1.204       .  T
C1651      C1652   1.203       .  T
C1657      C1665   1.435       .  S
C1657      C1658   1.401       .  A
C1657      C1662   1.400       .  A
C1658      C1659   1.398       .  A
C1658      H1667   1.084       .  S
C1659      C1660   1.400       .  A
C1659      H1668   1.083       .  S
C1660      C1663   1.437       .  S
C1660      C1661   1.401       .  A
C1661      C1662   1.397       .  A
C1661      H1669   1.084       .  S
C1662      H1670   1.084       .  S
C1663      C1664   1.204       .  T
C1665      C1666   1.203       .  T
C1671      C1679   1.432       .  S
C1671      C1672   1.399       .  A
C1671      C1676   1.402       .  A
C1672      C1673   1.396       .  A
C1672      H1681   1.083       .  S
C1673      C1674   1.402       .  A
C1673      H1682   1.084       .  S
C1674      C1677   1.431       .  S
C1674      C1675   1.398       .  A
C1675      C1676   1.396       .  A
C1675      H1683   1.084       .  S
C1676      H1684   1.084       .  S
C1677      C1678   1.200       .  T
C1679      C1680   1.200       .  T
C1685      C1693   1.453       .  S
C1685      C1686   1.404       .  A
C1685      C1690   1.403       .  A
C1686      C1687   1.404       .  A
C1686      H1695   1.083       .  S
C1687      C1688   1.404       .  A
C1687      H1696   1.083       .  S
C1688      C1691   1.454       .  S
C1688      C1689   1.404       .  A
C1689      C1690   1.405       .  A
C1689      H1697   1.083       .  S
C1690      H1698   1.083       .  S
C1691      C1692   1.215       .  T
C1693      C1694   1.214       .  T
C1699      C1707   1.451       .  S
C1699      C1700   1.403       .  A
C1699      C1704   1.403       .  A
C1700      C1701   1.402       .  A
C1700      H1709   1.084       .  S
C1701      C1702   1.402       .  A
C1701      H1710   1.083       .  S
C1702      C1705   1.451       .  S
C1702      C1703   1.404       .  A
C1703      C1704   1.405       .  A
C1703      H1711   1.083       .  S
C1704      H1712   1.083       .  S
C1705      C1706   1.213       .  T
C1707      C1708   1.213       .  T
C1713      C1721   1.441       .  S
C1713      C1714   1.402       .  A
C1713      C1718   1.401       .  A
C1714      C1715   1.401       .  A
C1714      H1723   1.083       .  S
C1715      C1716   1.403       .  A
C1715      H1724   1.084       .  S
C1716      C1719   1.441       .  S
C1716      C1717   1.400       .  A
C1717      C1718   1.398       .  A
C1717      H1725   1.084       .  S
C1718      H1726   1.084       .  S
C1719      C1720   1.207       .  T
C1721      C1722   1.207       .  T
C1727      C1735   1.439       .  S
C1727      C1728   1.402       .  A
C1727      C1732   1.400       .  A
C1728      C1729   1.400       .  A
C1728      H1737   1.084       .  S
C1729      C1730   1.401       .  A
C1729      H1738   1.083       .  S
C1730      C1733   1.440       .  S
C1730      C1731   1.401       .  A
C1731      C1732   1.397       .  A
C1731      H1739   1.084       .  S
C1732      H1740   1.084       .  S
C1733      C1734   1.206       .  T
C1735      C1736   1.205       .  T
C1741      C1749   1.447       .  S
C1741      C1742   1.404       .  A
C1741      C1746   1.401       .  A
C1742      C1743   1.402       .  A
C1742      H1751   1.083       .  S
C1743      C1744   1.401       .  A
C1743      H1752   1.084       .  S
C1744      C1747   1.447       .  S
C1744      C1745   1.404       .  A
C1745      C1746   1.402       .  A
C1745      H1753   1.083       .  S
C1746      H1754   1.084       .  S
C1747      C1748   1.210       .  T
C1749      C1750   1.210       .  T
C1755      C1763   1.453   1_655  S
C1755      C1756   1.405       .  A
C1755      C1760   1.403       .  A
C1756      C1757   1.405       .  A
C1756      H1765   1.083       .  S
C1757      C1758   1.404       .  A
C1757      H1766   1.083       .  S
C1758      C1761   1.453       .  S
C1758      C1759   1.404       .  A
C1759      C1760   1.403       .  A
C1759      H1767   1.083       .  S
C1760      H1768   1.083       .  S
C1761      C1762   1.214       .  T
C1763      C1764   1.214       .  T
C1769      C1777   1.441       .  S
C1769      C1770   1.401       .  A
C1769      C1774   1.402       .  A
C1770      C1771   1.398       .  A
C1770      H1779   1.084       .  S
C1771      C1772   1.400       .  A
C1771      H1780   1.084       .  S
C1772      C1775   1.442       .  S
C1772      C1773   1.404       .  A
C1773      C1774   1.401       .  A
C1773      H1781   1.083       .  S
C1774      H1782   1.084       .  S
C1775      C1776   1.207       .  T
C1777      C1778   1.206       .  T
C1783      C1791   1.454   1_655  S
C1783      C1784   1.404       .  A
C1783      C1788   1.403   1_655  A
C1784      C1785   1.405       .  A
C1784      H1793   1.083       .  S
C1785      C1786   1.404       .  A
C1785      H1794   1.083       .  S
C1786      C1789   1.453       .  S
C1786      C1787   1.404       .  A
C1787      C1788   1.404   1_655  A
C1787      H1795   1.083       .  S
C1788      H1796   1.083       .  S
C1789      C1790   1.214       .  T
C1791      C1792   1.214       .  T
C1797      C1805   1.433       .  S
C1797      C1798   1.400   1_556  A
C1797      C1802   1.401       .  A
C1798      C1799   1.397   1_545  A
C1798      H1807   1.084   1_655  S
C1799      C1800   1.401   1_554  A
C1799      H1808   1.084   1_655  S
C1800      C1803   1.433   1_556  S
C1800      C1801   1.400       .  A
C1801      C1802   1.396   1_565  A
C1801      H1809   1.084       .  S
C1802      H1810   1.084       .  S
C1803      C1804   1.201       .  T
C1805      C1806   1.201   1_655  T
C1811      C1819   1.456       .  S
C1811      C1812   1.404       .  A
C1811      C1816   1.404   1_655  A
C1812      C1813   1.405   1_655  A
C1812      H1821   1.083       .  S
C1813      C1814   1.404       .  A
C1813      H1822   1.083       .  S
C1814      C1817   1.456       .  S
C1814      C1815   1.404       .  A
C1815      C1816   1.405       .  A
C1815      H1823   1.083       .  S
C1816      H1824   1.083       .  S
C1817      C1818   1.215       .  T
C1819      C1820   1.216       .  T
C1825      C1833   1.440       .  S
C1825      C1826   1.402       .  A
C1825      C1830   1.400       .  A
C1826      C1827   1.401       .  A
C1826      H1835   1.084       .  S
C1827      C1828   1.402       .  A
C1827      H1836   1.083       .  S
C1828      C1831   1.441       .  S
C1828      C1829   1.401       .  A
C1829      C1830   1.398       .  A
C1829      H1837   1.084       .  S
C1830      H1838   1.084       .  S
C1831      C1832   1.207       .  T
C1833      C1834   1.206       .  T
C1839      C1847   1.457       .  S
C1839      C1840   1.405       .  A
C1839      C1844   1.404       .  A
C1840      C1841   1.407       .  A
C1840      H1849   1.083       .  S
C1841      C1842   1.406       .  A
C1841      H1850   1.083       .  S
C1842      C1845   1.457       .  S
C1842      C1843   1.403       .  A
C1843      C1844   1.404       .  A
C1843      H1851   1.083       .  S
C1844      H1852   1.083       .  S
C1845      C1846   1.216   1_545  T
C1847      C1848   1.216       .  T
C1853      C1861   1.454       .  S
C1853      C1854   1.403       .  A
C1853      C1858   1.405       .  A
C1854      C1855   1.404       .  A
C1854      H1863   1.084       .  S
C1855      C1856   1.405       .  A
C1855      H1864   1.083       .  S
C1856      C1859   1.453       .  S
C1856      C1857   1.403       .  A
C1857      C1858   1.405       .  A
C1857      H1865   1.084       .  S
C1858      H1866   1.083       .  S
C1859      C1860   1.214       .  T
C1861      C1862   1.214       .  T
C1867      C1875   1.451       .  S
C1867      C1868   1.401       .  A
C1867      C1872   1.405       .  A
C1868      C1869   1.401       .  A
C1868      H1877   1.083       .  S
C1869      C1870   1.403       .  A
C1869      H1878   1.084       .  S
C1870      C1873   1.451       .  S
C1870      C1871   1.404       .  A
C1871      C1872   1.406       .  A
C1871      H1879   1.083       .  S
C1872      H1880   1.083       .  S
C1873      C1874   1.213       .  T
C1875      C1876   1.212       .  T
C1881      C1889   1.432       .  S
C1881      C1882   1.399   1_556  A
C1881      C1886   1.402       .  A
C1882      C1883   1.396       .  A
C1882      H1891   1.084       .  S
C1883      C1884   1.402   1_554  A
C1883      H1892   1.084       .  S
C1884      C1887   1.432   1_556  S
C1884      C1885   1.399       .  A
C1885      C1886   1.396       .  A
C1885      H1893   1.084       .  S
C1886      H1894   1.084       .  S
C1887      C1888   1.201       .  T
C1889      C1890   1.200       .  T
C1895      C1903   1.439       .  S
C1895      C1896   1.403       .  A
C1895      C1900   1.400       .  A
C1896      C1897   1.400       .  A
C1896      H1905   1.084       .  S
C1897      C1898   1.402       .  A
C1897      H1906   1.083       .  S
C1898      C1901   1.438       .  S
C1898      C1899   1.401       .  A
C1899      C1900   1.397       .  A
C1899      H1907   1.084       .  S
C1900      H1908   1.084       .  S
C1901      C1902   1.205       .  T
C1903      C1904   1.206       .  T
C1909      C1917   1.455       .  S
C1909      C1910   1.404       .  A
C1909      C1914   1.405       .  A
C1910      C1911   1.406   1_455  A
C1910      H1919   1.083       .  S
C1911      C1912   1.405       .  A
C1911      H1920   1.083       .  S
C1912      C1915   1.456       .  S
C1912      C1913   1.404       .  A
C1913      C1914   1.405   1_655  A
C1913      H1921   1.084   1_545  S
C1914      H1922   1.083       .  S
C1915      C1916   1.216       .  T
C1917      C1918   1.215       .  T
C1923      C1931   1.440       .  S
C1923      C1924   1.402       .  A
C1923      C1928   1.401       .  A
C1924      C1925   1.399       .  A
C1924      H1933   1.083       .  S
C1925      C1926   1.400       .  A
C1925      H1934   1.083       .  S
C1926      C1929   1.439       .  S
C1926      C1927   1.402       .  A
C1927      C1928   1.398       .  A
C1927      H1935   1.084       .  S
C1928      H1936   1.083       .  S
C1929      C1930   1.205       .  T
C1931      C1932   1.206       .  T
C1937      C1945   1.454       .  S
C1937      C1938   1.403       .  A
C1937      C1942   1.404       .  A
C1938      C1939   1.404       .  A
C1938      H1947   1.083       .  S
C1939      C1940   1.403       .  A
C1939      H1948   1.083   1_655  S
C1940      C1943   1.453   1_655  S
C1940      C1941   1.404       .  A
C1941      C1942   1.405       .  A
C1941      H1949   1.084       .  S
C1942      H1950   1.083       .  S
C1943      C1944   1.214       .  T
C1945      C1946   1.214       .  T
C1951      C1959   1.431       .  S
C1951      C1952   1.400       .  A
C1951      C1956   1.400       .  A
C1952      C1953   1.396       .  A
C1952      H1961   1.084       .  S
C1953      C1954   1.400       .  A
C1953      H1962   1.084       .  S
C1954      C1957   1.431       .  S
C1954      C1955   1.400       .  A
C1955      C1956   1.396       .  A
C1955      H1963   1.084   1_655  S
C1956      H1964   1.084   1_655  S
C1957      C1958   1.200       .  T
C1959      C1960   1.200   1_655  T
C1965      C1973   1.442       .  S
C1965      C1966   1.401       .  A
C1965      C1970   1.403       .  A
C1966      C1967   1.399       .  A
C1966      H1975   1.084       .  S
C1967      C1968   1.402       .  A
C1967      H1976   1.084       .  S
C1968      C1971   1.443       .  S
C1968      C1969   1.402       .  A
C1969      C1970   1.401       .  A
C1969      H1977   1.083       .  S
C1970      H1978   1.083       .  S
C1971      C1972   1.208       .  T
C1973      C1974   1.207       .  T
C1979      C1987   1.452       .  S
C1979      C1980   1.404       .  A
C1979      C1984   1.404       .  A
C1980      C1981   1.402       .  A
C1980      H1989   1.083       .  S
C1981      C1982   1.402       .  A
C1981      H1990   1.084       .  S
C1982      C1985   1.451       .  S
C1982      C1983   1.404       .  A
C1983      C1984   1.405       .  A
C1983      H1991   1.083       .  S
C1984      H1992   1.083       .  S
C1985      C1986   1.212       .  T
C1987      C1988   1.214       .  T
C1993      C2001   1.430       .  S
C1993      C1994   1.400       .  A
C1993      C1998   1.400       .  A
C1994      C1995   1.396   1_545  A
C1994      H2003   1.084       .  S
C1995      C1996   1.401       .  A
C1995      H2004   1.084       .  S
C1996      C1999   1.431       .  S
C1996      C1997   1.399       .  A
C1997      C1998   1.395   1_565  A
C1997      H2005   1.084       .  S
C1998      H2006   1.084       .  S
C1999      C2000   1.200       .  T
C2001      C2002   1.199       .  T
C2007      C2015   1.437       .  S
C2007      C2008   1.402       .  A
C2007      C2012   1.400       .  A
C2008      C2009   1.399       .  A
C2008      H2017   1.083       .  S
C2009      C2010   1.401       .  A
C2009      H2018   1.083       .  S
C2010      C2013   1.437       .  S
C2010      C2011   1.401       .  A
C2011      C2012   1.397       .  A
C2011      H2019   1.084       .  S
C2012      H2020   1.084       .  S
C2013      C2014   1.204       .  T
C2015      C2016   1.205       .  T
C2021      C2029   1.451       .  S
C2021      C2022   1.405       .  A
C2021      C2026   1.402       .  A
C2022      C2023   1.404       .  A
C2022      H2031   1.083       .  S
C2023      C2024   1.402       .  A
C2023      H2032   1.083       .  S
C2024      C2027   1.450       .  S
C2024      C2025   1.404       .  A
C2025      C2026   1.403       .  A
C2025      H2033   1.083       .  S
C2026      H2034   1.083       .  S
C2027      C2028   1.212       .  T
C2029      C2030   1.213       .  T
C2035      C2043   1.454       .  S
C2035      C2036   1.404       .  A
C2035      C2040   1.403       .  A
C2036      C2037   1.407       .  A
C2036      H2045   1.083       .  S
C2037      C2038   1.405       .  A
C2037      H2046   1.083       .  S
C2038      C2041   1.455       .  S
C2038      C2039   1.403       .  A
C2039      C2040   1.403       .  A
C2039      H2047   1.083       .  S
C2040      H2048   1.084       .  S
C2041      C2042   1.215       .  T
C2043      C2044   1.214       .  T
