geometry optimzed in LAMMPS
_audit_creation_date              2020-12-01 
_audit_creation_method            'lammps2cif' 
_symmetry_space_group_name_H-M    'P1' 
_symmetry_Int_Tables_number       1 
_symmetry_cell_setting            triclinic 
loop_ 
_symmetry_equiv_pos_as_xyz 
  x,y,z 
_cell_length_a                    42.67132509 
_cell_length_b                    34.344672412148086 
_cell_length_c                    41.788082235637816 
_cell_angle_alpha                 89.96122855560384 
_cell_angle_beta                  97.2803201947777 
_cell_angle_gamma                 90.30098731785696 
loop_ 
_atom_site_label 
_atom_site_type_symbol 
_atom_site_fract_x 
_atom_site_fract_y 
_atom_site_fract_z 
_atom_site_charge 
Fe1        Fe  0.12906545  0.62842366  0.34954036     1.65800
Fe2        Fe  0.07937745  0.60738824  0.28410789     1.73200
Fe3        Fe  0.12772036  0.53876425  0.31659608     1.54400
O4          O  0.17312244  0.55374789  0.33892160    -0.81900
O5          O  0.05258121  0.56500591  0.30046997    -0.80200
O6          O  0.17442269  0.61844773  0.34087717    -0.84400
O7          O  0.13280645  0.58423022  0.38563005    -0.79300
O8          O  0.14156695  0.54532063  0.27191529    -0.81000
O9          O  0.05768372  0.64527356  0.31332394    -0.83800
C10         C  0.12198432  0.54926141  0.38574254     0.97000
C11         C  0.18801268  0.58574256  0.34514960     1.04400
O12         O  0.11309062  0.59222279  0.31630547    -1.12800
O13         O  0.10548696  0.65096493  0.26835223    -0.75200
O14         O  0.12636133  0.67582314  0.31567715    -0.78700
O15         O  0.11303341  0.53053248  0.36014426    -0.79400
C16         C  0.11889411  0.67861848  0.28485035     0.95900
O17         O  0.08470248  0.63881536  0.36167406    -0.77300
O18         O  0.09582636  0.57022233  0.25014443    -0.82500
C19         C  0.05668660  0.53061938  0.29178355     0.98500
C20         C  0.12033517  0.54960782  0.24802376     1.04400
O21         O  0.08428206  0.51606845  0.29456341    -0.78200
C22         C  0.05934859  0.64689695  0.34385317     1.02700
Fe23       Fe  0.37660059  0.63050348  0.40062001     1.65800
Fe24       Fe  0.42615684  0.61206570  0.46700806     1.73200
Fe25       Fe  0.37820689  0.54207812  0.43531998     1.54400
O26         O  0.33273758  0.55577673  0.41302649    -0.81900
O27         O  0.45367004  0.57005032  0.45196753    -0.80200
O28         O  0.33109665  0.62034708  0.40922390    -0.84400
O29         O  0.37313980  0.58551512  0.36529020    -0.79300
O30         O  0.36421068  0.55008837  0.47974716    -0.81000
O31         O  0.44779098  0.64972024  0.43718183    -0.83800
C32         C  0.38374893  0.55056603  0.36578123     0.97000
C33         C  0.31755149  0.58734133  0.40672624     1.04400
O34         O  0.39277877  0.59549273  0.43460112    -1.12800
O35         O  0.39919023  0.65496336  0.48145401    -0.75200
O36         O  0.37847634  0.67832843  0.43354519    -0.78700
O37         O  0.39257449  0.53253762  0.39174844    -0.79400
C38         C  0.38491104  0.68138728  0.46441021     0.95900
O39         O  0.42117348  0.64112359  0.38882292    -0.77300
O40         O  0.40985806  0.57538426  0.00187356    -0.82500
C41         C  0.44940143  0.53575741  0.46095143     0.98500
C42         C  0.38502226  0.55497800  0.00391510     1.04400
O43         O  0.42178413  0.52081402  0.45778132    -0.78200
C44         C  0.44647920  0.64983653  0.40663732     1.02700
Fe45       Fe  0.37548082  0.37563087  0.15028888     1.65800
Fe46       Fe  0.42420823  0.39260555  0.21740445     1.73200
Fe47       Fe  0.37821640  0.46363764  0.18538653     1.54400
O48         O  0.39303042  0.47309327  0.14211712    -0.81900
O49         O  0.40879388  0.43028438  0.25222738    -0.80200
O50         O  0.37225340  0.42108005  0.11524646    -0.84400
O51         O  0.33026347  0.38594259  0.15918314    -0.79300
O52         O  0.42252944  0.48373124  0.20775120    -0.81000
O53         O  0.39538353  0.35076237  0.23118397    -0.83800
C54         C  0.31676461  0.41882344  0.15677631     0.97000
C55         C  0.38321052  0.45601465  0.11595976     1.04400
O56         O  0.39183116  0.41015382  0.18458395    -1.12800
O57         O  0.44511688  0.35419972  0.18746054    -0.75200
O58         O  0.41998086  0.36510161  0.13871628    -0.78700
O59         O  0.33221659  0.45050089  0.16301013    -0.79400
C60         C  0.44448238  0.35464371  0.15690033     0.95900
O61         O  0.37718194  0.32699094  0.18263028    -0.77300
O62         O  0.45343905  0.43340476  0.20298878    -0.82500
C63         C  0.38444388  0.45150601  0.25388351     0.98500
C64         C  0.44985449  0.46815879  0.21100282     1.04400
O65         O  0.36379455  0.45598214  0.22962067    -0.78200
C66         C  0.38274833  0.32359105  0.21354017     1.02700
Fe67       Fe  0.12849418  0.37367980  0.09949215     1.65800
Fe68       Fe  0.07675154  0.39399223  0.03504827     1.73200
Fe69       Fe  0.12564468  0.46320621  0.06668003     1.54400
O70         O  0.11165950  0.47073711  0.11055027    -0.81900
O71         O  0.09290084  0.43106574  0.50022403    -0.80200
O72         O  0.13249073  0.41746322  0.13555878    -0.84400
O73         O  0.17353461  0.38537681  0.08984754    -0.79300
O74         O  0.08204850  0.48513901  0.04516549    -0.81000
O75         O  0.10220070  0.35030731  0.01887776    -0.83800
C76         C  0.18675225  0.41843513  0.09472984     0.97000
C77         C  0.12140524  0.45207372  0.13597785     1.04400
O78         O  0.11119214  0.40956318  0.06664387    -1.12800
O79         O  0.05547860  0.35650503  0.06541177    -0.75200
O80         O  0.08467490  0.36167756  0.11284558    -0.78700
O81         O  0.17136494  0.44986484  0.08868335    -0.79400
C82         C  0.05853728  0.35422101  0.09604648     0.95900
O83         O  0.12570058  0.32677697  0.06564309    -0.77300
O84         O  0.05014185  0.43623831  0.05144876    -0.82500
C85         C  0.11757462  0.45177279  0.49788396     0.98500
C86         C  0.05435657  0.47061531  0.04269243     1.04400
O87         O  0.13882359  0.45653021  0.02175540    -0.78200
C88         C  0.11699035  0.32349948  0.03509835     1.02700
Fe89       Fe  0.37319999  0.87323085  0.09846028     1.65800
Fe90       Fe  0.32432779  0.89402106  0.03226102     1.73200
Fe91       Fe  0.37256893  0.96283134  0.06571099     1.54400
O92         O  0.35809702  0.97088337  0.10936282    -0.81900
O93         O  0.34059467  0.93213442  0.49861519    -0.80200
O94         O  0.37678790  0.91697137  0.13487342    -0.84400
O95         O  0.41886596  0.88356592  0.09058032    -0.79300
O96         O  0.32889135  0.98479309  0.04396961    -0.81000
O97         O  0.35143225  0.85189043  0.01681743    -0.83800
C98         C  0.43287215  0.91619690  0.09456773     0.97000
C99         C  0.36656581  0.95205928  0.13497980     1.04400
O100        O  0.35759326  0.90947202  0.06519592    -1.12800
O101        O  0.30270066  0.85472756  0.06067843    -0.75200
O102        O  0.32852636  0.86205140  0.10960215    -0.78700
O103        O  0.41815496  0.94814283  0.08807070    -0.79400
C104        C  0.30376707  0.85285005  0.09115686     0.95900
O105        O  0.37077644  0.82645040  0.06438893    -0.77300
O106        O  0.29655771  0.93530127  0.04825271    -0.82500
C107        C  0.36533131  0.95270439  0.49671266     0.98500
C108        C  0.30112942  0.97015319  0.04088626     1.04400
O109        O  0.38639453  0.95685774  0.02082405    -0.78200
C110        C  0.36427480  0.82419729  0.03346019     1.02700
Fe111      Fe  0.12175905  0.87376833  0.15029639     1.65800
Fe112      Fe  0.17474668  0.89493655  0.21390944     1.73200
Fe113      Fe  0.12508284  0.96328623  0.18311969     1.54400
O114        O  0.13811291  0.97145100  0.13888186    -0.81900
O115        O  0.15940320  0.93204369  0.24910710    -0.80200
O116        O  0.11784338  0.91770189  0.11380859    -0.84400
O117        O  0.07693320  0.88469559  0.16068801    -0.79300
O118        O  0.16906866  0.98598593  0.20404449    -0.81000
O119        O  0.14979584  0.85072124  0.23076051    -0.83800
C120        C  0.06342720  0.91746330  0.15663676     0.97000
C121        C  0.12907470  0.95250328  0.11336270     1.04400
O122        O  0.13971773  0.90990979  0.18282187    -1.12800
O123        O  0.19523342  0.85751201  0.18320876    -0.75200
O124        O  0.16496803  0.86164291  0.13630122    -0.78700
O125        O  0.07891805  0.94914246  0.16212482    -0.79400
C126        C  0.19122634  0.85414954  0.15264641     0.95900
O127        O  0.12501094  0.82694440  0.18449633    -0.77300
O128        O  0.20094690  0.93770405  0.19676943    -0.82500
C129        C  0.13470773  0.95229137  0.25172906     0.98500
C130        C  0.19679178  0.97186286  0.20593037     1.04400
O131        O  0.11288971  0.95594766  0.22829765    -0.78200
C132        C  0.13449266  0.82379592  0.21494999     1.02700
Fe133      Fe  0.12372919  0.12963804  0.39955673     1.65800
Fe134      Fe  0.17420644  0.11024613  0.46510843     1.73200
Fe135      Fe  0.12618566  0.04053182  0.43282690     1.54400
O136        O  0.08037993  0.05426270  0.41053872    -0.81900
O137        O  0.20187750  0.06853967  0.44959497    -0.80200
O138        O  0.07862973  0.11881054  0.40893525    -0.84400
O139        O  0.12015970  0.08528955  0.36361919    -0.79300
O140        O  0.11243091  0.04701946  0.47746674    -0.81000
O141        O  0.19559317  0.14817456  0.43495674    -0.83800
C142        C  0.13167624  0.05081045  0.36358123     0.97000
C143        C  0.06510002  0.08591000  0.40468801     1.04400
O144        O  0.14051509  0.09411763  0.43290983    -1.12800
O145        O  0.14753050  0.15333767  0.48028962    -0.75200
O146        O  0.12647051  0.17731849  0.43277313    -0.78700
O147        O  0.14090253  0.03258184  0.38932462    -0.79400
C148        C  0.13413742  0.18064871  0.46347283     0.95900
O149        O  0.16761439  0.14081071  0.38708596    -0.77300
O150        O  0.15803520  0.07252978  0.99969353    -0.82500
C151        C  0.19754609  0.03399795  0.45786379     0.98500
C152        C  0.13356597  0.05119078  0.00148638     1.04400
O153        O  0.16990491  0.01911884  0.45489068    -0.78200
C154        C  0.19322961  0.14935523  0.40427800     1.02700
Fe155      Fe  0.37580482  0.12976332  0.34842935     1.65800
Fe156      Fe  0.32603320  0.10990782  0.28235748     1.73200
Fe157      Fe  0.37341609  0.04058589  0.31522099     1.54400
O158        O  0.41919425  0.05487289  0.33765537    -0.81900
O159        O  0.29779152  0.06817468  0.29764997    -0.80200
O160        O  0.42102736  0.11947588  0.33937956    -0.84400
O161        O  0.37959304  0.08551419  0.38440483    -0.79300
O162        O  0.38758995  0.04730466  0.27072239    -0.81000
O163        O  0.30483152  0.14809363  0.31206403    -0.83800
C164        C  0.36841630  0.05074362  0.38450888     0.97000
C165        C  0.43455245  0.08671504  0.34333558     1.04400
O166        O  0.35922797  0.09399684  0.31502247    -1.12800
O167        O  0.35331598  0.15276551  0.26724726    -0.75200
O168        O  0.37319345  0.17727094  0.31507412    -0.78700
O169        O  0.35869616  0.03251619  0.35882065    -0.79400
C170        C  0.36633678  0.18025704  0.28425498     0.95900
O171        O  0.33162619  0.14054079  0.36055033    -0.77300
O172        O  0.34219848  0.07230812  0.24809444    -0.82500
C173        C  0.30193078  0.03354918  0.28959988     0.98500
C174        C  0.36676345  0.05144335  0.24649998     1.04400
O175        O  0.32953037  0.01876579  0.29279994    -0.78200
C176        C  0.30651586  0.14944433  0.34269080     1.02700
C177        C  0.27777956  0.15881683  0.35802124    -0.05700
C178        C  0.24805411  0.15701683  0.33936127    -0.33100
C179        C  0.22021813  0.15642477  0.35386050     0.36100
C180        C  0.22153292  0.15832121  0.38788314    -0.06100
C181        C  0.25115943  0.16362595  0.40631128    -0.33000
C182        C  0.27902279  0.16396318  0.39175170     0.36000
H183        H  0.24626032  0.15337795  0.31343962     0.16400
O184        O  0.19198522  0.15213490  0.33441879    -0.60500
H185        H  0.25300405  0.16549888  0.43235981     0.16400
O186        O  0.30738858  0.16716077  0.41107964    -0.60600
H187        H  0.31247415  0.19538323  0.41156588     0.43400
H188        H  0.19006577  0.12387322  0.32960894     0.43400
C189        C  0.03129704  0.08509491  0.39006667    -0.05700
C190        C  0.01760389  0.11969880  0.37694408    -0.33100
C191        C  0.48694010  0.12028685  0.36058270     0.36100
C192        C  0.46856861  0.08583440  0.35719883    -0.06100
C193        C  0.48219168  0.05108035  0.37021451    -0.33000
C194        C  0.01320938  0.05045689  0.38633890     0.36000
H195        H  0.03089605  0.14673995  0.37881895     0.16400
O196        O  0.47516216  0.15508399  0.34836907    -0.60500
H197        H  0.46856727  0.02429562  0.36850608     0.16400
O198        O  0.02519121  0.01599278  0.39902301    -0.60600
H199        H  0.53310686  0.00228617  0.38079375     0.43400
H200        H  0.98108569  0.15642904  0.32616982     0.43400
C201        C  0.27501930  0.01392644  0.27064123    -0.05700
C202        C  0.28029981  0.99355679  0.24277065    -0.33100
C203        C  0.25500795  0.98231946  0.21999687     0.36100
C204        C  0.22376720  0.99128003  0.22498533    -0.06100
C205        C  0.21849445  0.01164887  0.25287005    -0.33000
C206        C  0.24378667  0.02292768  0.27561084     0.36000
H207        H  0.30417287  0.98766694  0.23794713     0.16400
O208        O  0.26103605  0.96336383  0.19253472    -0.60500
H209        H  0.19462577  0.01745202  0.25779002     0.16400
O210        O  0.23777164  0.04192094  0.30306810    -0.60600
H211        H  0.23207785  0.06887278  0.29616828     0.43400
H212        H  0.26631959  0.93624936  0.19935942     0.45800
C213        C  0.13335426  0.97650752  0.28100329    -0.05700
C214        C  0.11045784  0.00611095  0.28057442    -0.33100
C215        C  0.11045643  0.03215467  0.30643010     0.36100
C216        C  0.13360388  0.02900542  0.33337210    -0.06100
C217        C  0.15678986  0.99999267  0.33352998    -0.33000
C218        C  0.15688774  0.97405215  0.30783063     0.36000
H219        H  0.09250795  0.00940904  0.25999238     0.16400
O220        O  0.08726426  0.05978529  0.30542560    -0.60500
H221        H  0.17480662  0.99687365  0.35410696     0.16400
O222        O  0.17975794  0.94590920  0.30965793    -0.60600
H223        H  0.19904858  0.95936478  0.30432794     0.43400
H224        H  0.06943413  0.04677890  0.31431173     0.43400
C225        C  0.13180265  0.02653508  0.03057521    -0.05700
C226        C  0.10865334  0.99685639  0.02996636    -0.33100
C227        C  0.10841913  0.97054202  0.05572997     0.36100
C228        C  0.13134212  0.97383182  0.08289466    -0.06100
C229        C  0.15492677  0.00262351  0.08303055    -0.33000
C230        C  0.15526188  0.02876983  0.05751407     0.36000
H231        H  0.09072695  0.99371161  0.00932119     0.16400
O232        O  0.08481323  0.94316482  0.05476021    -0.60500
H233        H  0.17303274  0.00553496  0.10357570     0.16400
O234        O  0.17897392  0.05609395  0.05921950    -0.60600
H235        H  0.17103239  0.07859844  0.07060875     0.43400
H236        H  0.09235916  0.92077609  0.04290027     0.43400
C237        C  0.22419440  0.01450646  0.47688190    -0.05700
C238        C  0.21828804  0.99231354  0.50365881    -0.33100
C239        C  0.24314139  0.98021787  0.02639214     0.36100
C240        C  0.27450543  0.99043795  0.02255620    -0.06100
C241        C  0.28036878  0.01308712  0.99602809    -0.33000
C242        C  0.25556998  0.02475767  0.47309679     0.36000
H243        H  0.19426392  0.98554279  0.50769999     0.16400
O244        O  0.23657116  0.95909861  0.05267134    -0.60500
H245        H  0.30438212  0.02011978  0.99210701     0.16400
O246        O  0.26220946  0.04650427  0.44720356    -0.60600
H247        H  0.26651106  0.02724397  0.93063764     0.43400
H248        H  0.23097827  0.93257940  0.54435445     0.43400
C249        C  0.36731638  0.97630242  0.46714426    -0.05700
C250        C  0.39203743  0.00358536  0.46620677    -0.33100
C251        C  0.39223876  0.02946636  0.44017386     0.36100
C252        C  0.36724169  0.02880141  0.41475577    -0.06100
C253        C  0.34265686  0.00168696  0.41572013    -0.33000
C254        C  0.34255844  0.97557917  0.44127131     0.36000
H255        H  0.41126304  0.00505924  0.48576328     0.16400
O256        O  0.41738323  0.05434186  0.43939272    -0.60500
H257        H  0.32348763  0.00016503  0.39607000     0.16400
O258        O  0.31834863  0.94895214  0.44019823    -0.60600
H259        H  0.30010786  0.96352468  0.44650504     0.43400
H260        H  0.43220236  0.04036067  0.42701286     0.43400
C261        C  0.36560964  0.97389617  0.16523707    -0.05700
C262        C  0.39196052  0.97458772  0.18895413    -0.33100
C263        C  0.39365732  0.00107607  0.21472940     0.36100
C264        C  0.36848663  0.02722431  0.21726370    -0.06100
C265        C  0.34217511  0.02611841  0.19339335    -0.33000
C266        C  0.34061292  0.99993173  0.16771786     0.36000
H267        H  0.41179244  0.95558518  0.18685595     0.16400
O268        O  0.41990013  0.00073288  0.23736740    -0.60500
H269        H  0.32216967  0.04502946  0.19487227     0.16400
O270        O  0.31411477  0.99939920  0.14533800    -0.60600
H271        H  0.31605074  0.02258454  0.13154089     0.43400
H272        H  0.43432832  0.02061214  0.22998064     0.43400
C273        C  0.21862090  0.84383941  0.13547537    -0.05700
C274        C  0.24788324  0.83517372  0.15341134    -0.33100
C275        C  0.27563424  0.83432963  0.13876187     0.36100
C276        C  0.27465851  0.84269307  0.10556852    -0.06100
C277        C  0.24506104  0.84724447  0.08703449    -0.33000
C278        C  0.21724824  0.84772829  0.10157972     0.36000
H279        H  0.24964444  0.83107291  0.17927921     0.16400
O280        O  0.30378811  0.82755528  0.15759591    -0.60500
H281        H  0.24351366  0.85325055  0.06142359     0.16400
O282        O  0.18931148  0.85533861  0.08260828    -0.60600
H283        H  0.18044618  0.82941767  0.07592775     0.43400
H284        H  0.30684123  0.79897987  0.15669071     0.43400
C285        C  0.46671459  0.91683248  0.10930023    -0.05700
C286        C  0.48160417  0.95225784  0.11931824    -0.33100
C287        C  0.01256619  0.95317776  0.13561688     0.36100
C288        C  0.02936721  0.91818068  0.14265692    -0.06100
C289        C  0.01423037  0.88286113  0.13299044    -0.33000
C290        C  0.48364349  0.88192268  0.11638755     0.36000
H291        H  0.46913861  0.97949829  0.11480894     0.16400
O292        O  0.02592516  0.98849831  0.14474965    -0.60500
H293        H  0.02637500  0.85543263  0.13767504     0.16400
O294        O  0.47054584  0.84635226  0.10758437    -0.60600
H295        H  0.97637733  0.84134189  0.08570463     0.43400
H296        H  0.53487396  0.99834596  0.12549266     0.43400
C297        C  0.12265230  0.28712765  0.01701269    -0.05700
C298        C  0.11191664  0.28485886  0.48357871    -0.33100
C299        C  0.11505149  0.25075107  0.46577334     0.36100
C300        C  0.12900371  0.21751713  0.48114886    -0.06100
C301        C  0.13994211  0.21994351  0.01450714    -0.33000
C302        C  0.13686877  0.25401802  0.03227680     0.36000
H303        H  0.10072810  0.30965849  0.47091311     0.16400
O304        O  0.10396675  0.25028610  0.43350417    -0.60500
H305        H  0.15118336  0.19521610  0.02722426     0.16400
O306        O  0.14812125  0.25449380  0.06450311    -0.60600
H307        H  0.13081109  0.24344113  0.07549981     0.43400
H308        H  0.12171747  0.26017453  0.42254517     0.43400
C309        C  0.37638771  0.28676120  0.23061982    -0.05700
C310        C  0.37696157  0.28750139  0.26451461    -0.33100
C311        C  0.37471616  0.25331641  0.28243108     0.36100
C312        C  0.37181657  0.21704761  0.26673735    -0.06100
C313        C  0.37089051  0.21628273  0.23279331    -0.33000
C314        C  0.37322493  0.25052180  0.21485707     0.36000
H315        H  0.37935772  0.31488274  0.27747295     0.16400
O316        O  0.37500254  0.25593334  0.31521290    -0.60500
H317        H  0.36840338  0.18886007  0.21990088     0.16400
O318        O  0.37286199  0.24798722  0.18206132    -0.60600
H319        H  0.39520486  0.24395868  0.17867901     0.43400
H320        H  0.35260794  0.25966181  0.31854323     0.43400
C321        C  0.22018339  0.41987957  0.11036705    -0.05700
C322        C  0.23379768  0.38558880  0.12408629    -0.33100
C323        C  0.26422487  0.38543887  0.14093305     0.36100
C324        C  0.28255087  0.41992289  0.14390603    -0.06100
C325        C  0.26871879  0.45463723  0.13111532    -0.33000
C326        C  0.23785547  0.45487436  0.11460976     0.36000
H327        H  0.22062490  0.35846281  0.12226842     0.16400
O328        O  0.27586156  0.35100794  0.15404650    -0.60500
H329        H  0.28213616  0.48158365  0.13307957     0.16400
O330        O  0.22534973  0.48949316  0.10281157    -0.60600
H331        H  0.23233507  0.49230770  0.08118274     0.43400
H332        H  0.26976413  0.35050650  0.17619508     0.43400
C333        C  0.47360120  0.34532103  0.14207252    -0.05700
C334        C  0.00327557  0.34745401  0.16091816    -0.33100
C335        C  0.03132572  0.34735914  0.14660931     0.36100
C336        C  0.03023009  0.34527181  0.11261945    -0.06100
C337        C  0.50064253  0.33976176  0.09411779    -0.33000
C338        C  0.47265537  0.33963923  0.10845525     0.36000
H339        H  0.00482683  0.35164630  0.18676827     0.16400
O340        O  0.05945244  0.35216249  0.16608566    -0.60500
H341        H  0.49890433  0.33749796  0.06809902     0.16400
O342        O  0.44441119  0.33603933  0.08897477    -0.60600
H343        H  0.43940621  0.30780133  0.08879815     0.43400
H344        H  0.06623222  0.32545798  0.17272890     0.43400
C345        C  0.37736148  0.71731457  0.48181146    -0.05700
C346        C  0.37154238  0.75228382  0.46497227    -0.33100
C347        C  0.36765772  0.78715194  0.48139256     0.36100
C348        C  0.37002621  0.78784868  0.01563802    -0.06100
C349        C  0.37519251  0.75270490  0.03239569    -0.33000
C350        C  0.37859882  0.71775730  0.01593599     0.36000
H351        H  0.37058142  0.75287429  0.43894267     0.16400
O352        O  0.36224246  0.82053604  0.46353682    -0.60500
H353        H  0.37602490  0.75204527  0.05841153     0.16400
O354        O  0.38224166  0.68397052  0.03354537    -0.60600
H355        H  0.40465834  0.68391699  0.04337160     0.43400
H356        H  0.33929043  0.82015292  0.45574520     0.43400
C357        C  0.38480317  0.52817349  0.33577060    -0.05700
C358        C  0.35881707  0.52794323  0.31163884    -0.33100
C359        C  0.35750501  0.50197120  0.28552973     0.36100
C360        C  0.38258510  0.47559284  0.28321629    -0.06100
C361        C  0.40856503  0.47624539  0.30748618    -0.33000
C362        C  0.40974620  0.50196836  0.33349645     0.36000
H363        H  0.33900070  0.54704171  0.31354897     0.16400
O364        O  0.33135017  0.50231650  0.26276617    -0.60500
H365        H  0.42853332  0.45724022  0.30612357     0.16400
O366        O  0.43585792  0.50191956  0.35635966    -0.60600
H367        H  0.43316057  0.47894562  0.37017105     0.43400
H368        H  0.33475667  0.52441053  0.24828192     0.43400
C369        C  0.38260065  0.53196295  0.03362006    -0.05700
C370        C  0.36152008  0.50004098  0.03247961    -0.33100
C371        C  0.36201174  0.47402743  0.05846306     0.36100
C372        C  0.38383071  0.47957585  0.08627874    -0.06100
C373        C  0.40458297  0.51171990  0.08748682    -0.33000
C374        C  0.40416865  0.53760441  0.06168318     0.36000
H375        H  0.34500132  0.49455662  0.01104942     0.16400
O376        O  0.34086827  0.44365249  0.05646371    -0.60500
H377        H  0.42139253  0.51705389  0.10874546     0.16400
O378        O  0.42492719  0.56842986  0.06435964    -0.60600
H379        H  0.44537907  0.55747574  0.05977736     0.43400
H380        H  0.32168552  0.45425924  0.06437361     0.43400
C381        C  0.47632891  0.51657623  0.48011098    -0.05700
C382        C  0.50639978  0.53407610  0.98153175    -0.33100
C383        C  0.03153152  0.52169809  0.00368811     0.36100
C384        C  0.02719791  0.49048798  0.02451713    -0.06100
C385        C  0.99707336  0.47316602  0.52328915    -0.33000
C386        C  0.47180110  0.48592308  0.50141305     0.36000
H387        H  0.51045731  0.55809613  0.96571942     0.16400
O388        O  0.06048103  0.53922753  0.00362446    -0.60500
H389        H  0.99312100  0.44889422  0.53889884     0.16400
O390        O  0.44286982  0.46823728  0.50120649    -0.60600
H391        H  0.43382082  0.47940810  0.51988643     0.43400
H392        H  0.06039395  0.56165298  0.01854450     0.43400
C393        C  0.12921947  0.78713720  0.23305742    -0.05700
C394        C  0.12095457  0.75257028  0.21626993    -0.33100
C395        C  0.11854603  0.71720134  0.23264785     0.36100
C396        C  0.12415116  0.71548615  0.26693553    -0.06100
C397        C  0.13238937  0.75010083  0.28374787    -0.33000
C398        C  0.13477214  0.78550688  0.26732273     0.36000
H399        H  0.11687785  0.75266579  0.19014782     0.16400
O400        O  0.11037614  0.68452061  0.21457700    -0.60500
H401        H  0.13644706  0.74999784  0.30986896     0.16400
O402        O  0.14258143  0.81836124  0.28528598    -0.60600
H403        H  0.12211445  0.83038372  0.28844733     0.43400
H404        H  0.13063365  0.67377676  0.20929456     0.43400
C405        C  0.11951556  0.47506944  0.46815200    -0.05700
C406        C  0.14559020  0.50007388  0.46628226    -0.33100
C407        C  0.14618448  0.52604163  0.44041586     0.36100
C408        C  0.12037875  0.52763099  0.41598059    -0.06100
C409        C  0.09449843  0.50265392  0.41767881    -0.33000
C410        C  0.09379146  0.47674168  0.44332981     0.36000
H411        H  0.16560021  0.49973895  0.48502332     0.16400
O412        O  0.17246768  0.54875988  0.43876384    -0.60500
H413        H  0.07471263  0.50287685  0.39864162     0.16400
O414        O  0.06779942  0.45310983  0.44362315    -0.60600
H415        H  0.05180071  0.46943017  0.45241483     0.43400
H416        H  0.18562005  0.53395109  0.42509200     0.43400
C417        C  0.12164573  0.52582378  0.21858562    -0.05700
C418        C  0.14621760  0.49874091  0.21733377    -0.33100
C419        C  0.14572546  0.47258413  0.19148832     0.36100
C420        C  0.12047980  0.47332166  0.16638812    -0.06100
C421        C  0.09582824  0.49981252  0.16787244    -0.33000
C422        C  0.09627287  0.52595352  0.19333220     0.36000
H423        H  0.16579704  0.49756163  0.23652387     0.16400
O424        O  0.17080830  0.44810244  0.19010911    -0.60500
H425        H  0.07622502  0.50085186  0.14865835     0.16400
O426        O  0.07126964  0.55088345  0.19340832    -0.60600
H427        H  0.07727756  0.57446697  0.18186233     0.43400
H428        H  0.16547943  0.42419460  0.20164199     0.43400
C429        C  0.22139819  0.58530029  0.36042046    -0.05700
C430        C  0.23311825  0.61758899  0.37900574    -0.33100
C431        C  0.26371381  0.61786755  0.39552288     0.36100
C432        C  0.28363667  0.58559521  0.39353267    -0.06100
C433        C  0.27179220  0.55290232  0.37555557    -0.33000
C434        C  0.24104187  0.55259789  0.35903682     0.36000
H435        H  0.21831797  0.64272938  0.38124878     0.16400
O436        O  0.27389778  0.65003527  0.41341209    -0.60500
H437        H  0.28679485  0.52795347  0.37330813     0.16400
O438        O  0.23071592  0.52042314  0.34125547    -0.60600
H439        H  0.23610802  0.52565634  0.31926215     0.43400
H440        H  0.26889017  0.64441875  0.43551939     0.43400
C441        C  0.03064678  0.65619627  0.35935449    -0.05700
C442        C  0.03292439  0.65847029  0.39321339    -0.33100
C443        C  0.00585142  0.65905837  0.40906641     0.36100
C444        C  0.47549328  0.65782258  0.39109466    -0.06100
C445        C  0.47330356  0.65866979  0.35719832    -0.33000
C446        C  0.50033970  0.65785757  0.34137203     0.36000
H447        H  0.05582027  0.65769327  0.40774258     0.16400
O448        O  0.00952931  0.65896957  0.44215659    -0.60500
H449        H  0.45041319  0.65792426  0.34265140     0.16400
O450        O  0.49654644  0.65578285  0.30833647    -0.60600
H451        H  0.49677195  0.68321151  0.30091501     0.43400
H452        H  0.01331577  0.63134321  0.44847187     0.43400
C453        C  0.02944864  0.51099958  0.27337766    -0.05700
C454        C  0.99915733  0.52619401  0.27515200    -0.33100
C455        C  0.47337547  0.51494921  0.25324364     0.36100
C456        C  0.47736158  0.48733839  0.22929938    -0.06100
C457        C  0.50762890  0.47189985  0.22759295    -0.33000
C458        C  0.03349471  0.48329898  0.24946172     0.36000
H459        H  0.99549716  0.54775153  0.29322587     0.16400
O460        O  0.44418829  0.52980107  0.25654334    -0.60500
H461        H  0.51118236  0.45020777  0.20958266     0.16400
O462        O  0.06272148  0.46848704  0.24622103    -0.60600
H463        H  0.06427499  0.44415424  0.25910871     0.43400
H464        H  0.44235670  0.55365466  0.24306134     0.43400
Fe465      Fe  0.12906514  0.62842233  0.84954001     1.65800
Fe466      Fe  0.07937738  0.60738655  0.78410749     1.73200
Fe467      Fe  0.12772095  0.53876293  0.81659515     1.54400
O468        O  0.17312239  0.55374640  0.83892173    -0.81900
O469        O  0.05258251  0.56500281  0.80046958    -0.80200
O470        O  0.17442275  0.61844621  0.84087785    -0.84400
O471        O  0.13280529  0.58422857  0.88562913    -0.79300
O472        O  0.14156830  0.54532046  0.77191478    -0.81000
O473        O  0.05768239  0.64527041  0.81332356    -0.83800
C474        C  0.12198349  0.54925960  0.88574131     0.97000
C475        C  0.18801255  0.58574090  0.84515035     1.04400
O476        O  0.11309082  0.59222156  0.81630484    -1.12800
O477        O  0.10548557  0.65096479  0.76835212    -0.75200
O478        O  0.12636162  0.67582190  0.81567694    -0.78700
O479        O  0.11303322  0.53053043  0.86014296    -0.79400
C480        C  0.11889364  0.67861777  0.78485027     0.95900
O481        O  0.08470204  0.63881452  0.86167346    -0.77300
O482        O  0.09582761  0.57022203  0.75014390    -0.82500
C483        C  0.05668801  0.53061696  0.79178163     0.98500
C484        C  0.12033666  0.54960796  0.74802315     1.04400
O485        O  0.08428352  0.51606640  0.79456118    -0.78200
C486        C  0.05934782  0.64689519  0.84385278     1.02700
Fe487      Fe  0.37659967  0.63050193  0.90061946     1.65800
Fe488      Fe  0.42615478  0.61206568  0.96700845     1.73200
Fe489      Fe  0.37820695  0.54207657  0.93531944     1.54400
O490        O  0.33273779  0.55577403  0.91302520    -0.81900
O491        O  0.45366916  0.57005101  0.95196908    -0.80200
O492        O  0.33109591  0.62034448  0.90922335    -0.84400
O493        O  0.37313969  0.58551334  0.86528993    -0.79300
O494        O  0.36420914  0.55008601  0.97974592    -0.81000
O495        O  0.44778949  0.64972010  0.93718219    -0.83800
C496        C  0.38374973  0.55056470  0.86578106     0.97000
C497        C  0.31755122  0.58733843  0.90672582     1.04400
O498        O  0.39277783  0.59549165  0.93460087    -1.12800
O499        O  0.39918696  0.65496286  0.98145340    -0.75200
O500        O  0.37847441  0.67832745  0.93354398    -0.78700
O501        O  0.39257594  0.53253683  0.89174839    -0.79400
C502        C  0.38490805  0.68138651  0.96440905     0.95900
O503        O  0.42117268  0.64112273  0.88882295    -0.77300
O504        O  0.40986088  0.57538440  0.50187345    -0.82500
C505        C  0.44940102  0.53575807  0.96095302     0.98500
C506        C  0.38502481  0.55497902  0.50391572     1.04400
O507        O  0.42178406  0.52081371  0.95778211    -0.78200
C508        C  0.44647817  0.64983610  0.90663765     1.02700
Fe509      Fe  0.37548163  0.37563037  0.65028802     1.65800
Fe510      Fe  0.42420824  0.39260409  0.71740425     1.73200
Fe511      Fe  0.37821787  0.46363717  0.68538546     1.54400
O512        O  0.39303258  0.47309239  0.64211635    -0.81900
O513        O  0.40879408  0.43028352  0.75222673    -0.80200
O514        O  0.37225520  0.42107944  0.61524561    -0.84400
O515        O  0.33026425  0.38594301  0.65918176    -0.79300
O516        O  0.42253096  0.48372980  0.70775011    -0.81000
O517        O  0.39538235  0.35076183  0.73118314    -0.83800
C518        C  0.31676571  0.41882408  0.65677508     0.97000
C519        C  0.38321292  0.45601375  0.61595900     1.04400
O520        O  0.39183197  0.41015308  0.68458321    -1.12800
O521        O  0.44511670  0.35419751  0.68746083    -0.75200
O522        O  0.41998176  0.36510034  0.63871623    -0.78700
O523        O  0.33221800  0.45050132  0.66300878    -0.79400
C524        C  0.44448275  0.35464163  0.65690068     0.95900
O525        O  0.37718184  0.32699033  0.68262919    -0.77300
O526        O  0.45344026  0.43340241  0.70298931    -0.82500
C527        C  0.38444442  0.45150581  0.75388250     0.98500
C528        C  0.44985584  0.46815697  0.71100206     1.04400
O529        O  0.36379546  0.45598240  0.72961942    -0.78200
C530        C  0.38274754  0.32359049  0.71353911     1.02700
Fe531      Fe  0.12849491  0.37367887  0.59949239     1.65800
Fe532      Fe  0.07675280  0.39399105  0.53504804     1.73200
Fe533      Fe  0.12564492  0.46320550  0.56668056     1.54400
O534        O  0.11165887  0.47073553  0.61055050    -0.81900
O535        O  0.09289915  0.43106648  0.00022392    -0.80200
O536        O  0.13249149  0.41746235  0.63555896    -0.84400
O537        O  0.17353540  0.38537641  0.58984789    -0.79300
O538        O  0.08204871  0.48513785  0.54516519    -0.81000
O539        O  0.10220245  0.35030634  0.51887799    -0.83800
C540        C  0.18675278  0.41843492  0.59473043     0.97000
C541        C  0.12140551  0.45207258  0.63597804     1.04400
O542        O  0.11119289  0.40956225  0.56664403    -1.12800
O543        O  0.05547978  0.35650361  0.56541141    -0.75200
O544        O  0.08467541  0.36167644  0.61284563    -0.78700
O545        O  0.17136516  0.44986452  0.58868440    -0.79400
C546        C  0.05853800  0.35421961  0.59604616     0.95900
O547        O  0.12570146  0.32677564  0.56564352    -0.77300
O548        O  0.05014234  0.43623675  0.55144790    -0.82500
C549        C  0.11757308  0.45177290  0.99788334     0.98500
C550        C  0.05435687  0.47061367  0.54269130     1.04400
O551        O  0.13882475  0.45653020  0.52175630    -0.78200
C552        C  0.11699139  0.32349812  0.53509874     1.02700
Fe553      Fe  0.37319890  0.87323151  0.59846050     1.65800
Fe554      Fe  0.32432703  0.89402217  0.53226125     1.73200
Fe555      Fe  0.37256782  0.96283245  0.56571193     1.54400
O556        O  0.35809439  0.97088365  0.60936343    -0.81900
O557        O  0.34059410  0.93213406  0.99861475    -0.80200
O558        O  0.37678588  0.91697168  0.63487367    -0.84400
O559        O  0.41886482  0.88356718  0.59058086    -0.79300
O560        O  0.32889098  0.98479452  0.54396915    -0.81000
O561        O  0.35143076  0.85189075  0.51681784    -0.83800
C562        C  0.43287081  0.91619816  0.59456919     0.97000
C563        C  0.36656286  0.95205912  0.63498031     1.04400
O564        O  0.35759238  0.90947284  0.56519622    -1.12800
O565        O  0.30269895  0.85472952  0.56067861    -0.75200
O566        O  0.32852542  0.86205141  0.60960219    -0.78700
O567        O  0.41815348  0.94814411  0.58807272    -0.79400
C568        C  0.30376584  0.85285096  0.59115705     0.95900
O569        O  0.37077593  0.82645128  0.56438917    -0.77300
O570        O  0.29655760  0.93530289  0.54825290    -0.82500
C571        C  0.36533058  0.95270413  0.99671196     0.98500
C572        C  0.30112920  0.97015442  0.54088539     1.04400
O573        O  0.38639453  0.95685928  0.52082531    -0.78200
C574        C  0.36427376  0.82419785  0.53346052     1.02700
Fe575      Fe  0.12175832  0.87376830  0.65029726     1.65800
Fe576      Fe  0.17474606  0.89493717  0.71391031     1.73200
Fe577      Fe  0.12508241  0.96328690  0.68311929     1.54400
O578        O  0.13811253  0.97145055  0.63888117    -0.81900
O579        O  0.15940240  0.93204438  0.74910756    -0.80200
O580        O  0.11784257  0.91770102  0.61380889    -0.84400
O581        O  0.07693253  0.88469597  0.66068886    -0.79300
O582        O  0.16906781  0.98598706  0.70404362    -0.81000
O583        O  0.14979512  0.85072152  0.73076133    -0.83800
C584        C  0.06342669  0.91746376  0.65663738     0.97000
C585        C  0.12907430  0.95250210  0.61336240     1.04400
O586        O  0.13971725  0.90991030  0.68282236    -1.12800
O587        O  0.19523297  0.85751269  0.68320979    -0.75200
O588        O  0.16496725  0.86164260  0.63630233    -0.78700
O589        O  0.07891773  0.94914284  0.66212479    -0.79400
C590        C  0.19122568  0.85414976  0.65264748     0.95900
O591        O  0.12501020  0.82694463  0.68449725    -0.77300
O592        O  0.20094681  0.93770494  0.69677099    -0.82500
C593        C  0.13470737  0.95229296  0.75172922     0.98500
C594        C  0.19679101  0.97186429  0.70593048     1.04400
O595        O  0.11288952  0.95594986  0.72829765    -0.78200
C596        C  0.13449207  0.82379605  0.71495082     1.02700
Fe597      Fe  0.12372955  0.12963939  0.89955675     1.65800
Fe598      Fe  0.17420563  0.11024784  0.96510950     1.73200
Fe599      Fe  0.12618567  0.04053312  0.93282727     1.54400
O600        O  0.08038014  0.05426373  0.91053804    -0.81900
O601        O  0.20187734  0.06854111  0.94959754    -0.80200
O602        O  0.07862964  0.11881159  0.90893411    -0.84400
O603        O  0.12016081  0.08529080  0.86361956    -0.79300
O604        O  0.11242980  0.04702084  0.97746662    -0.81000
O605        O  0.19559318  0.14817596  0.93495820    -0.83800
C606        C  0.13167732  0.05081172  0.86358179     0.97000
C607        C  0.06510012  0.08591089  0.90468680     1.04400
O608        O  0.14051500  0.09411904  0.93291023    -1.12800
O609        O  0.14752917  0.15333941  0.98028956    -0.75200
O610        O  0.12647013  0.17732012  0.93277275    -0.78700
O611        O  0.14090351  0.03258316  0.88932528    -0.79400
C612        C  0.13413644  0.18065042  0.96347249     0.95900
O613        O  0.16761517  0.14081248  0.88708692    -0.77300
O614        O  0.15803690  0.07252759  0.49969281    -0.82500
C615        C  0.19754577  0.03399947  0.95786656     0.98500
C616        C  0.13356765  0.05118872  0.50148609     1.04400
O617        O  0.16990463  0.01912020  0.95489250    -0.78200
C618        C  0.19323002  0.14935739  0.90427948     1.02700
Fe619      Fe  0.37580458  0.12976462  0.84842935     1.65800
Fe620      Fe  0.32603135  0.10990921  0.78235853     1.73200
Fe621      Fe  0.37341351  0.04058656  0.81522231     1.54400
O622        O  0.41919229  0.05487239  0.83765582    -0.81900
O623        O  0.29778947  0.06817720  0.79765243    -0.80200
O624        O  0.42102674  0.11947540  0.83937897    -0.84400
O625        O  0.37959234  0.08551642  0.88440555    -0.79300
O626        O  0.38758661  0.04730380  0.77072333    -0.81000
O627        O  0.30483085  0.14809634  0.81206512    -0.83800
C628        C  0.36841458  0.05074640  0.88451015     0.97000
C629        C  0.43455122  0.08671419  0.84333514     1.04400
O630        O  0.35922652  0.09399799  0.81502313    -1.12800
O631        O  0.35331442  0.15276598  0.76724700    -0.75200
O632        O  0.37319356  0.17727138  0.81507342    -0.78700
O633        O  0.35869395  0.03251865  0.85882225    -0.79400
C634        C  0.36633624  0.18025722  0.78425434     0.95900
O635        O  0.33162649  0.14054370  0.86055092    -0.77300
O636        O  0.34219527  0.07230793  0.74809557    -0.82500
C637        C  0.30192799  0.03355174  0.78960184     0.98500
C638        C  0.36675973  0.05144217  0.74650116     1.04400
O639        O  0.32952724  0.01876744  0.79280206    -0.78200
C640        C  0.30651587  0.14944740  0.84269194     1.02700
C641        C  0.27778009  0.15882051  0.85802322    -0.05700
C642        C  0.24805444  0.15702620  0.83936309    -0.33100
C643        C  0.22021845  0.15643416  0.85386242     0.36100
C644        C  0.22153354  0.15832467  0.88788530    -0.06100
C645        C  0.25116038  0.16362448  0.90631391    -0.33000
C646        C  0.27902368  0.16396175  0.89175429     0.36000
H647        H  0.24626035  0.15339196  0.81344097     0.16400
O648        O  0.19198504  0.15215059  0.83442039    -0.60500
H649        H  0.25300525  0.16549304  0.93236266     0.16400
O650        O  0.30738961  0.16715384  0.91108270    -0.60600
H651        H  0.31247797  0.19537549  0.91157083     0.43400
H652        H  0.19006382  0.12389034  0.82960581     0.43400
C653        C  0.03129720  0.08509540  0.89006495    -0.05700
C654        C  0.01760452  0.11969847  0.87694004    -0.33100
C655        C  0.48694039  0.12028442  0.86057776     0.36100
C656        C  0.46856761  0.08583288  0.85719761    -0.06100
C657        C  0.48218962  0.05107973  0.87021641    -0.33000
C658        C  0.01320897  0.05045767  0.88633940     0.36000
H659        H  0.03089722  0.14673924  0.87881291     0.16400
O660        O  0.47516367  0.15508048  0.84836050    -0.60500
H661        H  0.46856417  0.02429578  0.86851080     0.16400
O662        O  0.02519041  0.01599432  0.89902553    -0.60600
H663        H  0.53310319  0.00228346  0.88079987     0.43400
H664        H  0.98108533  0.15642403  0.82616301     0.43400
C665        C  0.27501661  0.01393037  0.77064192    -0.05700
C666        C  0.28029795  0.99356051  0.74277170    -0.33100
C667        C  0.25500674  0.98232322  0.71999719     0.36100
C668        C  0.22376576  0.99128315  0.72498498    -0.06100
C669        C  0.21849213  0.01165296  0.75286897    -0.33000
C670        C  0.24378378  0.02293253  0.77561014     0.36000
H671        H  0.30417123  0.98767031  0.73794909     0.16400
O672        O  0.26103565  0.96336843  0.69253496    -0.60500
H673        H  0.19462322  0.01745609  0.75778820     0.16400
O674        O  0.23776788  0.04192702  0.80306655    -0.60600
H675        H  0.23207534  0.06887884  0.79616599     0.43400
H676        H  0.26632017  0.93625393  0.69935950     0.45800
C677        C  0.13335438  0.97650920  0.78100350    -0.05700
C678        C  0.11045859  0.00611338  0.78057462    -0.33100
C679        C  0.11045768  0.03215704  0.80643039     0.36100
C680        C  0.13360479  0.02900677  0.83337261    -0.06100
C681        C  0.15679028  0.99999347  0.83353043    -0.33000
C682        C  0.15688787  0.97405325  0.80783085     0.36000
H683        H  0.09250889  0.00941211  0.75999251     0.16400
O684        O  0.08726628  0.05978870  0.80542573    -0.60500
H685        H  0.17480693  0.99687393  0.85410744     0.16400
O686        O  0.17975807  0.94591028  0.80965780    -0.60600
H687        H  0.19904850  0.95936581  0.80432778     0.43400
H688        H  0.06943600  0.04678342  0.81431232     0.43400
C689        C  0.13180462  0.02653256  0.53057481    -0.05700
C690        C  0.10865150  0.99685865  0.52996792    -0.33100
C691        C  0.10841640  0.97054423  0.55573136     0.36100
C692        C  0.13134235  0.97382923  0.58289395    -0.06100
C693        C  0.15493073  0.00261581  0.58302790    -0.33000
C694        C  0.15526690  0.02876202  0.55751142     0.36000
H695        H  0.09072250  0.99371795  0.50932458     0.16400
O696        O  0.08480662  0.94317248  0.55476400    -0.60500
H697        H  0.17303877  0.00552334  0.60357161     0.16400
O698        O  0.17898297  0.05608063  0.55921458    -0.60600
H699        H  0.17104626  0.07858708  0.57060513     0.43400
H700        H  0.09234786  0.92078151  0.54290265     0.43400
C701        C  0.22419396  0.01450804  0.97688516    -0.05700
C702        C  0.21828771  0.99231528  0.00366227    -0.33100
C703        C  0.24314141  0.98021706  0.52638922     0.36100
C704        C  0.27450543  0.99043797  0.52255398    -0.06100
C705        C  0.28036906  0.01308663  0.49602563    -0.33000
C706        C  0.25556955  0.02475879  0.97309973     0.36000
H707        H  0.19426358  0.98554506  0.00770381     0.16400
O708        O  0.23657078  0.95909799  0.55266839    -0.60500
H709        H  0.30438245  0.02011970  0.49210499     0.16400
O710        O  0.26220900  0.04650518  0.94720638    -0.60600
H711        H  0.26651394  0.02724321  0.43063563     0.43400
H712        H  0.23097804  0.93257999  0.04435713     0.43400
C713        C  0.36731469  0.97630394  0.96714438    -0.05700
C714        C  0.39203605  0.00358642  0.96620694    -0.33100
C715        C  0.39223715  0.02946838  0.94017470     0.36100
C716        C  0.36723952  0.02880490  0.91475724    -0.06100
C717        C  0.34265397  0.00169150  0.91572188    -0.33000
C718        C  0.34255581  0.97558267  0.94127236     0.36000
H719        H  0.41126231  0.00505891  0.98576286     0.16400
O720        O  0.41738206  0.05434309  0.93939339    -0.60500
H721        H  0.32348419  0.00017082  0.89607224     0.16400
O722        O  0.31834563  0.94895620  0.94019927    -0.60600
H723        H  0.30010507  0.96352912  0.94650660     0.43400
H724        H  0.43220112  0.04036098  0.92701370     0.43400
C725        C  0.36560571  0.97389489  0.66523798    -0.05700
C726        C  0.39195598  0.97458539  0.68895572    -0.33100
C727        C  0.39365244  0.00107302  0.71473141     0.36100
C728        C  0.36848216  0.02722203  0.71726531    -0.06100
C729        C  0.34217070  0.02611635  0.69339480    -0.33000
C730        C  0.34060872  0.99992993  0.66771904     0.36000
H731        H  0.41178784  0.95558268  0.68685770     0.16400
O732        O  0.41989465  0.00072855  0.73737012    -0.60500
H733        H  0.32216530  0.04502746  0.69487374     0.16400
O734        O  0.31411053  0.99939700  0.64533927    -0.60600
H735        H  0.31604608  0.02258268  0.63154230     0.43400
H736        H  0.43432417  0.02060640  0.72998334     0.43400
C737        C  0.21862016  0.84383981  0.63547634    -0.05700
C738        C  0.24788262  0.83517436  0.65341213    -0.33100
C739        C  0.27563352  0.83433054  0.63876246     0.36100
C740        C  0.27465749  0.84269386  0.60556904    -0.06100
C741        C  0.24505990  0.84724512  0.58703525    -0.33000
C742        C  0.21724726  0.84772885  0.60158068     0.36000
H743        H  0.24964403  0.83107362  0.67928003     0.16400
O744        O  0.30378756  0.82755669  0.65759635    -0.60500
H745        H  0.24351230  0.85325118  0.56142433     0.16400
O746        O  0.18931041  0.85533941  0.58260946    -0.60600
H747        H  0.18044530  0.82941863  0.57592832     0.43400
H748        H  0.30683993  0.79898102  0.65669306     0.43400
C749        C  0.46671317  0.91683366  0.60930191    -0.05700
C750        C  0.48160323  0.95225910  0.61931876    -0.33100
C751        C  0.01256737  0.95317874  0.63561292     0.36100
C752        C  0.02936655  0.91818142  0.64265824    -0.06100
C753        C  0.01422767  0.88286126  0.63299762    -0.33000
C754        C  0.48364164  0.88192373  0.61639029     0.36000
H755        H  0.46913805  0.97949968  0.61480861     0.16400
O756        O  0.02592849  0.98850009  0.64473946    -0.60500
H757        H  0.02637074  0.85543249  0.63768670     0.16400
O758        O  0.47054342  0.84635319  0.60758864    -0.60600
H759        H  0.97637202  0.84133395  0.58571928     0.43400
H760        H  0.53487375  0.99834568  0.62549075     0.43400
C761        C  0.12265266  0.28712593  0.51701309    -0.05700
C762        C  0.11192347  0.28486400  0.98357665    -0.33100
C763        C  0.11505788  0.25075613  0.96577123     0.36100
C764        C  0.12900242  0.21751880  0.98114837    -0.06100
C765        C  0.13995037  0.21994513  0.51450595    -0.33000
C766        C  0.13687654  0.25401964  0.53227559     0.36000
H767        H  0.10074114  0.30966652  0.97090973     0.16400
O768        O  0.10398089  0.25029478  0.93350021    -0.60500
H769        H  0.15119768  0.19522047  0.52722165     0.16400
O770        O  0.14813646  0.25449906  0.56450003    -0.60600
H771        H  0.13083139  0.24344232  0.57550187     0.43400
H772        H  0.12173674  0.26017916  0.92254658     0.43400
C773        C  0.37638675  0.28676062  0.73061852    -0.05700
C774        C  0.37695740  0.28750157  0.76451291    -0.33100
C775        C  0.37471234  0.25331676  0.78242963     0.36100
C776        C  0.37181634  0.21704746  0.76673657    -0.06100
C777        C  0.37089356  0.21628169  0.73279292    -0.33000
C778        C  0.37322778  0.25052060  0.71485641     0.36000
H779        H  0.37935076  0.31488341  0.77747068     0.16400
O780        O  0.37499519  0.25593433  0.81521099    -0.60500
H781        H  0.36840929  0.18885845  0.71990115     0.16400
O782        O  0.37286885  0.24798528  0.68206117    -0.60600
H783        H  0.39521278  0.24396010  0.67868169     0.43400
H784        H  0.35259956  0.25965927  0.81853886     0.43400
C785        C  0.22018399  0.41987969  0.61036738    -0.05700
C786        C  0.23379780  0.38558980  0.62408880    -0.33100
C787        C  0.26422521  0.38544033  0.64093506     0.36100
C788        C  0.28255188  0.41992385  0.64390532    -0.06100
C789        C  0.26872026  0.45463750  0.63111255    -0.33000
C790        C  0.23785673  0.45487421  0.61460747     0.36000
H791        H  0.22062444  0.35846422  0.62227306     0.16400
O792        O  0.27586146  0.35101031  0.65405073    -0.60500
H793        H  0.28213818  0.48158353  0.63307471     0.16400
O794        O  0.22535157  0.48949225  0.60280687    -0.60600
H795        H  0.23233396  0.49230208  0.58117642     0.43400
H796        H  0.26976656  0.35051293  0.67620050     0.43400
C797        C  0.47360166  0.34531823  0.64207338    -0.05700
C798        C  0.00327574  0.34744856  0.66091741    -0.33100
C799        C  0.03132601  0.34735364  0.64660862     0.36100
C800        C  0.03023043  0.34527014  0.61261859    -0.06100
C801        C  0.50064303  0.33975854  0.59411876    -0.33000
C802        C  0.47265592  0.33963561  0.60845623     0.36000
H803        H  0.00482710  0.35163779  0.68676787     0.16400
O804        O  0.05945296  0.35215289  0.66608543    -0.60500
H805        H  0.49890487  0.33749430  0.56810001     0.16400
O806        O  0.44441180  0.33603497  0.58897581    -0.60600
H807        H  0.43940726  0.30779664  0.58879938     0.43400
H808        H  0.06623130  0.32544727  0.67272639     0.43400
C809        C  0.37735819  0.71731395  0.98180978    -0.05700
C810        C  0.37154690  0.75228520  0.96497157    -0.33100
C811        C  0.36766431  0.78715347  0.98139250     0.36100
C812        C  0.37002570  0.78784930  0.51563844    -0.06100
C813        C  0.37520005  0.75270747  0.53239724    -0.33000
C814        C  0.37860832  0.71775987  0.51593830     0.36000
H815        H  0.37059112  0.75287706  0.93894245     0.16400
O816        O  0.36225746  0.82053984  0.96353801    -0.60500
H817        H  0.37603756  0.75204924  0.55841360     0.16400
O818        O  0.38225914  0.68397493  0.53354932    -0.60600
H819        H  0.40467754  0.68392600  0.54337053     0.43400
H820        H  0.33930667  0.82016148  0.95574076     0.43400
C821        C  0.38480404  0.52817203  0.83577044    -0.05700
C822        C  0.35881903  0.52794450  0.81163741    -0.33100
C823        C  0.35750680  0.50197305  0.78552791     0.36100
C824        C  0.38258563  0.47559253  0.78321532    -0.06100
C825        C  0.40856461  0.47624253  0.80748634    -0.33000
C826        C  0.40974592  0.50196492  0.83349701     0.36000
H827        H  0.33900361  0.54704483  0.81354673     0.16400
O828        O  0.33135314  0.50232143  0.76276290    -0.60500
H829        H  0.42853204  0.45723575  0.80612438     0.16400
O830        O  0.43585682  0.50191369  0.85636126    -0.60600
H831        H  0.43315792  0.47893948  0.87017172     0.43400
H832        H  0.33476212  0.52441517  0.74827940     0.43400
C833        C  0.38260403  0.53196326  0.53362047    -0.05700
C834        C  0.36152110  0.50004379  0.53248076    -0.33100
C835        C  0.36201273  0.47402944  0.55846362     0.36100
C836        C  0.38383389  0.47957466  0.58627805    -0.06100
C837        C  0.40458875  0.51171607  0.58748545    -0.33000
C838        C  0.40417461  0.53760126  0.56168226     0.36000
H839        H  0.34500026  0.49456209  0.51105163     0.16400
O840        O  0.34086673  0.44365721  0.55646514    -0.60500
H841        H  0.42139998  0.51704752  0.60874327     0.16400
O842        O  0.42493575  0.56842407  0.56435793    -0.60600
H843        H  0.44538612  0.55746752  0.55977338     0.43400
H844        H  0.32168547  0.45426645  0.56437599     0.43400
C845        C  0.47632858  0.51657783  0.98011308    -0.05700
C846        C  0.50640019  0.53407437  0.48153019    -0.33100
C847        C  0.03153199  0.52169636  0.50368652     0.36100
C848        C  0.02719832  0.49048569  0.52451498    -0.06100
C849        C  0.99707282  0.47316898  0.02329239    -0.33000
C850        C  0.47180097  0.48592535  0.00141581     0.36000
H851        H  0.51045801  0.55809456  0.46571813     0.16400
O852        O  0.06048138  0.53922638  0.50362369    -0.60500
H853        H  0.99312052  0.44889779  0.03890271     0.16400
O854        O  0.44286956  0.46824021  0.00121043    -0.60600
H855        H  0.43382091  0.47941259  0.01988991     0.43400
H856        H  0.06039413  0.56165068  0.51854466     0.43400
C857        C  0.12921918  0.78713698  0.73305802    -0.05700
C858        C  0.12095427  0.75257015  0.71627029    -0.33100
C859        C  0.11854579  0.71720101  0.73264798     0.36100
C860        C  0.12415093  0.71548553  0.76693566    -0.06100
C861        C  0.13238932  0.75010000  0.78374821    -0.33000
C862        C  0.13477208  0.78550623  0.76732331     0.36000
H863        H  0.11687741  0.75266592  0.69014818     0.16400
O864        O  0.11037583  0.68452044  0.71457693    -0.60500
H865        H  0.13644712  0.74999675  0.80986930     0.16400
O866        O  0.14258159  0.81836038  0.78528676    -0.60600
H867        H  0.12211481  0.83038208  0.78844935     0.43400
H868        H  0.13063369  0.67377335  0.70929847     0.43400
C869        C  0.11951395  0.47506884  0.96815105    -0.05700
C870        C  0.14558997  0.50007046  0.96627984    -0.33100
C871        C  0.14618461  0.52603772  0.94041325     0.36100
C872        C  0.12037785  0.52762948  0.91597931    -0.06100
C873        C  0.09449627  0.50265493  0.91767869    -0.33000
C874        C  0.09378889  0.47674319  0.94332998     0.36000
H875        H  0.16560086  0.49973357  0.98501987     0.16400
O876        O  0.17246923  0.54875285  0.93875946    -0.60500
H877        H  0.07470979  0.50287957  0.89864228     0.16400
O878        O  0.06779545  0.45311407  0.94362478    -0.60600
H879        H  0.05179830  0.46943633  0.95241692     0.43400
H880        H  0.18561963  0.53394207  0.92508709     0.43400
C881        C  0.12164732  0.52582424  0.71858489    -0.05700
C882        C  0.14622016  0.49874294  0.71733218    -0.33100
C883        C  0.14572778  0.47258567  0.69148702     0.36100
C884        C  0.12048076  0.47332091  0.66638820    -0.06100
C885        C  0.09582850  0.49981050  0.66787322    -0.33000
C886        C  0.09627346  0.52595217  0.69333250     0.36000
H887        H  0.16580051  0.49756525  0.73652137     0.16400
O888        O  0.17081162  0.44810592  0.69010659    -0.60500
H889        H  0.07622439  0.50084830  0.64866002     0.16400
O890        O  0.07126935  0.55088060  0.69340941    -0.60600
H891        H  0.07727588  0.57446450  0.68186294     0.43400
H892        H  0.16548502  0.42419806  0.70164090     0.43400
C893        C  0.22139775  0.58529796  0.86042181    -0.05700
C894        C  0.23311725  0.61758511  0.87900935    -0.33100
C895        C  0.26371287  0.61786308  0.89552631     0.36100
C896        C  0.28363627  0.58559187  0.89353337    -0.06100
C897        C  0.27179214  0.55290011  0.87555463    -0.33000
C898        C  0.24104170  0.55259614  0.85903623     0.36000
H899        H  0.21831652  0.64272466  0.88125415     0.16400
O900        O  0.27389642  0.65002913  0.91341790    -0.60500
H901        H  0.28679520  0.52795205  0.87330549     0.16400
O902        O  0.23071598  0.52042260  0.84125318    -0.60600
H903        H  0.23610813  0.52565761  0.81926011     0.43400
H904        H  0.26889049  0.64440903  0.93552526     0.43400
C905        C  0.03064618  0.65619502  0.85935429    -0.05700
C906        C  0.03292398  0.65846983  0.89321319    -0.33100
C907        C  0.00585108  0.65905854  0.90906639     0.36100
C908        C  0.47549245  0.65782224  0.89109512    -0.06100
C909        C  0.47330284  0.65866970  0.85719876    -0.33000
C910        C  0.50033905  0.65785734  0.84137252     0.36000
H911        H  0.05581993  0.65769292  0.90774227     0.16400
O912        O  0.00952911  0.65897073  0.94215655    -0.60500
H913        H  0.45041250  0.65792457  0.84265177     0.16400
O914        O  0.49654581  0.65578339  0.80833695    -0.60600
H915        H  0.49677369  0.68321217  0.80091597     0.43400
H916        H  0.01331568  0.63134441  0.94847238     0.43400
C917        C  0.02945023  0.51099799  0.77337467    -0.05700
C918        C  0.99915921  0.52619389  0.77514778    -0.33100
C919        C  0.47337691  0.51494836  0.75324160     0.36100
C920        C  0.47736300  0.48733733  0.72929754    -0.06100
C921        C  0.50763038  0.47189936  0.72759057    -0.33000
C922        C  0.03349624  0.48329638  0.74945947     0.36000
H923        H  0.99549902  0.54775228  0.79322096     0.16400
O924        O  0.44418970  0.52979993  0.75654156    -0.60500
H925        H  0.51118375  0.45020728  0.70958025     0.16400
O926        O  0.06272283  0.46848328  0.74621974    -0.60600
H927        H  0.06427520  0.44415020  0.75910721     0.43400
H928        H  0.44235807  0.55365376  0.74305999     0.43400
Fe929      Fe  0.62906540  0.62842330  0.34954023     1.65800
Fe930      Fe  0.57937735  0.60738741  0.28410785     1.73200
Fe931      Fe  0.62772047  0.53876365  0.31659614     1.54400
O932        O  0.67312257  0.55374756  0.33892152    -0.81900
O933        O  0.55258145  0.56500500  0.30047035    -0.80200
O934        O  0.67442272  0.61844744  0.34087737    -0.84400
O935        O  0.63280635  0.58423006  0.38563008    -0.79300
O936        O  0.64156688  0.54531984  0.27191523    -0.81000
O937        O  0.55768359  0.64527289  0.31332363    -0.83800
C938        C  0.62198436  0.54926120  0.38574267     0.97000
C939        C  0.68801273  0.58574227  0.34514969     1.04400
O940        O  0.61309065  0.59222222  0.31630543    -1.12800
O941        O  0.60548662  0.65096425  0.26835196    -0.75200
O942        O  0.62636121  0.67582251  0.31567682    -0.78700
O943        O  0.61303370  0.53053198  0.36014446    -0.79400
C944        C  0.61889379  0.67861783  0.28485005     0.95900
O945        O  0.58470245  0.63881512  0.36167373    -0.77300
O946        O  0.59582622  0.57022142  0.25014445    -0.82500
C947        C  0.55668672  0.53061855  0.29178366     0.98500
C948        C  0.62033505  0.54960699  0.24802373     1.04400
O949        O  0.58428217  0.51606756  0.29456354    -0.78200
C950        C  0.55934857  0.64689665  0.34385284     1.02700
Fe951      Fe  0.87660019  0.63050312  0.40062001     1.65800
Fe952      Fe  0.92615629  0.61206570  0.46700828     1.73200
Fe953      Fe  0.87820671  0.54207784  0.43532021     1.54400
O954        O  0.83273744  0.55577628  0.41302673    -0.81900
O955        O  0.95366981  0.57005052  0.45196802    -0.80200
O956        O  0.83109624  0.62034665  0.40922393    -0.84400
O957        O  0.87313936  0.58551470  0.36529030    -0.79300
O958        O  0.86421040  0.55008805  0.47974736    -0.81000
O959        O  0.94779040  0.64972021  0.43718190    -0.83800
C960        C  0.88374846  0.55056562  0.36578140     0.97000
C961        C  0.81755125  0.58734078  0.40672648     1.04400
O962        O  0.89277843  0.59549247  0.43460121    -1.12800
O963        O  0.89918933  0.65496319  0.48145408    -0.75200
O964        O  0.87847583  0.67832815  0.43354508    -0.78700
O965        O  0.89257422  0.53253733  0.39174864    -0.79400
C966        C  0.88491017  0.68138699  0.46441012     0.95900
O967        O  0.92117312  0.64112328  0.38882292    -0.77300
O968        O  0.90985844  0.57538412  0.00187355    -0.82500
C969        C  0.94940130  0.53575750  0.46095173     0.98500
C970        C  0.88502247  0.55497826  0.00391525     1.04400
O971        O  0.92178404  0.52081398  0.45778156    -0.78200
C972        C  0.94647879  0.64983629  0.40663739     1.02700
Fe973      Fe  0.87548119  0.37563126  0.15028877     1.65800
Fe974      Fe  0.92420792  0.39260552  0.21740476     1.73200
Fe975      Fe  0.87821655  0.46363791  0.18538670     1.54400
O976        O  0.89303088  0.47309379  0.14211747    -0.81900
O977        O  0.90879336  0.43028412  0.25222763    -0.80200
O978        O  0.87225403  0.42108063  0.11524659    -0.84400
O979        O  0.83026385  0.38594299  0.15918286    -0.79300
O980        O  0.92252944  0.48373136  0.20775171    -0.81000
O981        O  0.89538279  0.35076241  0.23118362    -0.83800
C982        C  0.81676502  0.41882385  0.15677596     0.97000
C983        C  0.88321105  0.45601529  0.11596004     1.04400
O984        O  0.89183129  0.41015408  0.18458403    -1.12800
O985        O  0.94511673  0.35419978  0.18746100    -0.75200
O986        O  0.91998130  0.36510198  0.13871649    -0.78700
O987        O  0.83221695  0.45050129  0.16300989    -0.79400
C988        C  0.94448250  0.35464365  0.15690082     0.95900
O989        O  0.87718207  0.32699092  0.18262975    -0.77300
O990        O  0.95343912  0.43340475  0.20298974    -0.82500
C991        C  0.88444337  0.45150576  0.25388365     0.98500
C992        C  0.94985446  0.46815886  0.21100356     1.04400
O993        O  0.86379427  0.45598218  0.22962066    -0.78200
C994        C  0.88274810  0.32359095  0.21353964     1.02700
Fe995      Fe  0.62849466  0.37367962  0.09949199     1.65800
Fe996      Fe  0.57675238  0.39399165  0.03504779     1.73200
Fe997      Fe  0.62564523  0.46320591  0.06667948     1.54400
O998        O  0.61165982  0.47073703  0.11054967    -0.81900
O999        O  0.59289998  0.43106637  0.50022456    -0.80200
O1000       O  0.63249105  0.41746325  0.13555837    -0.84400
O1001       O  0.67353518  0.38537669  0.08984745    -0.79300
O1002       O  0.58204904  0.48513854  0.04516462    -0.81000
O1003       O  0.60220181  0.35030678  0.01887770    -0.83800
C1004       C  0.68675281  0.41843507  0.09472953     0.97000
C1005       C  0.62140550  0.45207372  0.13597732     1.04400
O1006       O  0.61119277  0.40956285  0.06664350    -1.12800
O1007       O  0.55547934  0.35650452  0.06541127    -0.75200
O1008       O  0.58467517  0.36167757  0.11284530    -0.78700
O1009       O  0.67136546  0.44986476  0.08868301    -0.79400
C1010       C  0.55853764  0.35422093  0.09604600     0.95900
O1011       O  0.62570123  0.32677643  0.06564321    -0.77300
O1012       O  0.55014238  0.43623777  0.05144778    -0.82500
C1013       C  0.61757380  0.45177331  0.49788444     0.98500
C1014       C  0.55435710  0.47061480  0.04269151     1.04400
O1015       O  0.63882442  0.45652964  0.02175497    -0.78200
C1016       C  0.61699120  0.32349887  0.03509845     1.02700
Fe1017     Fe  0.87319972  0.87323084  0.09846032     1.65800
Fe1018     Fe  0.82432721  0.89402123  0.03226128     1.73200
Fe1019     Fe  0.87256833  0.96283154  0.06571143     1.54400
O1020       O  0.85809608  0.97088316  0.10936325    -0.81900
O1021       O  0.84059470  0.93213423  0.49861536    -0.80200
O1022       O  0.87678753  0.91697117  0.13487349    -0.84400
O1023       O  0.91886567  0.88356622  0.09058028    -0.79300
O1024       O  0.82889095  0.98479345  0.04396956    -0.81000
O1025       O  0.85143127  0.85189021  0.01681761    -0.83800
C1026       C  0.93287172  0.91619725  0.09456799     0.97000
C1027       C  0.86656507  0.95205889  0.13498011     1.04400
O1028       O  0.85759277  0.90947209  0.06519611    -1.12800
O1029       O  0.80269989  0.85472807  0.06067881    -0.75200
O1030       O  0.82852620  0.86205109  0.10960235    -0.78700
O1031       O  0.91815432  0.94814316  0.08807141    -0.79400
C1032       C  0.80376673  0.85284998  0.09115726     0.95900
O1033       O  0.87077621  0.82645046  0.06438895    -0.77300
O1034       O  0.79655743  0.93530172  0.04825299    -0.82500
C1035       C  0.86533126  0.95270431  0.49671278     0.98500
C1036       C  0.80112907  0.97015346  0.04088598     1.04400
O1037       O  0.88639418  0.95685806  0.02082460    -0.78200
C1038       C  0.86427417  0.82419720  0.03346027     1.02700
Fe1039     Fe  0.62175907  0.87376774  0.15029663     1.65800
Fe1040     Fe  0.67474660  0.89493614  0.21390984     1.73200
Fe1041     Fe  0.62508329  0.96328605  0.18311916     1.54400
O1042       O  0.63811328  0.97144995  0.13888115    -0.81900
O1043       O  0.65940335  0.93204388  0.24910723    -0.80200
O1044       O  0.61784324  0.91770078  0.11380845    -0.84400
O1045       O  0.57693331  0.88469529  0.16068826    -0.79300
O1046       O  0.66906912  0.98598565  0.20404346    -0.81000
O1047       O  0.64979515  0.85072123  0.23076091    -0.83800
C1048       C  0.56342745  0.91746306  0.15663677     0.97000
C1049       C  0.62907471  0.95250203  0.11336220     1.04400
O1050       O  0.63971791  0.90990946  0.18282192    -1.12800
O1051       O  0.69523316  0.85751101  0.18320943    -0.75200
O1052       O  0.66496807  0.86164208  0.13630170    -0.78700
O1053       O  0.57891843  0.94914218  0.16212459    -0.79400
C1054       C  0.69122626  0.85414851  0.15264707     0.95900
O1055       O  0.62501088  0.82694405  0.18449661    -0.77300
O1056       O  0.70094751  0.93770323  0.19676997    -0.82500
C1057       C  0.63470821  0.95229226  0.25172897     0.98500
C1058       C  0.69679221  0.97186248  0.20592984     1.04400
O1059       O  0.61289032  0.95594883  0.22829743    -0.78200
C1060       C  0.63449229  0.82379570  0.21495030     1.02700
Fe1061     Fe  0.62372995  0.12963880  0.39955706     1.65800
Fe1062     Fe  0.67420680  0.11024695  0.46510912     1.73200
Fe1063     Fe  0.62618606  0.04053263  0.43282740     1.54400
O1064       O  0.58038044  0.05426368  0.41053891    -0.81900
O1065       O  0.70187789  0.06854025  0.44959614    -0.80200
O1066       O  0.57863031  0.11881151  0.40893520    -0.84400
O1067       O  0.62016070  0.08529025  0.36361959    -0.79300
O1068       O  0.61243112  0.04702056  0.47746714    -0.81000
O1069       O  0.69559395  0.14817507  0.43495752    -0.83800
C1070       C  0.63167708  0.05081106  0.36358168     0.97000
C1071       C  0.56510056  0.08591100  0.40468803     1.04400
O1072       O  0.64051562  0.09411839  0.43291030    -1.12800
O1073       O  0.64753078  0.15333861  0.48028993    -0.75200
O1074       O  0.62647101  0.17731934  0.43277334    -0.78700
O1075       O  0.64090309  0.03258236  0.38932512    -0.79400
C1076       C  0.63413770  0.18064958  0.46347305     0.95900
O1077       O  0.66761532  0.14081135  0.38708664    -0.77300
O1078       O  0.65803505  0.07252850  0.99969295    -0.82500
C1079       C  0.69754631  0.03399861  0.45786511     0.98500
C1080       C  0.63356587  0.05118940  0.00148588     1.04400
O1081       O  0.66990513  0.01911952  0.45489163    -0.78200
C1082       C  0.69323049  0.14935580  0.40427878     1.02700
Fe1083     Fe  0.87580513  0.12976341  0.34842903     1.65800
Fe1084     Fe  0.82603295  0.10990799  0.28235750     1.73200
Fe1085     Fe  0.87341549  0.04058575  0.31522126     1.54400
O1086       O  0.91919370  0.05487225  0.33765565    -0.81900
O1087       O  0.79779119  0.06817512  0.29765022    -0.80200
O1088       O  0.92102735  0.11947522  0.33937887    -0.84400
O1089       O  0.87959316  0.08551447  0.38440482    -0.79300
O1090       O  0.88758942  0.04730411  0.27072270    -0.81000
O1091       O  0.80483154  0.14809398  0.31206415    -0.83800
C1092       C  0.86841594  0.05074411  0.38450906     0.97000
C1093       C  0.93455214  0.08671428  0.34333544     1.04400
O1094       O  0.85922776  0.09399689  0.31502244    -1.12800
O1095       O  0.85331569  0.15276552  0.26724681    -0.75200
O1096       O  0.87319402  0.17727073  0.31507349    -0.78700
O1097       O  0.85869543  0.03251672  0.35882092    -0.79400
C1098       C  0.86633707  0.18025682  0.28425438     0.95900
O1099       O  0.83162680  0.14054162  0.36055024    -0.77300
O1100       O  0.84219808  0.07230792  0.24809464    -0.82500
C1101       C  0.80193026  0.03354966  0.28959989     0.98500
C1102       C  0.86676290  0.05144283  0.24650029     1.04400
O1103       O  0.82952973  0.01876596  0.29280019    -0.78200
C1104       C  0.80651628  0.14944494  0.34269096     1.02700
C1105       C  0.77778024  0.15881750  0.35802180    -0.05700
C1106       C  0.74805468  0.15701930  0.33936188    -0.33100
C1107       C  0.72021879  0.15642718  0.35386128     0.36100
C1108       C  0.72153384  0.15832182  0.38788402    -0.06100
C1109       C  0.75116051  0.16362483  0.40631222    -0.33000
C1110       C  0.77902376  0.16396203  0.39175251     0.36000
H1111       H  0.74626067  0.15338196  0.31344006     0.16400
O1112       O  0.69198565  0.15213929  0.33441959    -0.60500
H1113       H  0.75300533  0.16549634  0.43236083     0.16400
O1114       O  0.80738963  0.16715755  0.41108054    -0.60600
H1115       H  0.81247680  0.19537977  0.41156655     0.43400
H1116       H  0.69006550  0.12387792  0.32960847     0.43400
C1117       C  0.53129755  0.08509590  0.39006664    -0.05700
C1118       C  0.51760406  0.11969998  0.37694471    -0.33100
C1119       C  0.98693995  0.12028571  0.36058211     0.36100
C1120       C  0.96856820  0.08583348  0.35719886    -0.06100
C1121       C  0.98219089  0.05107961  0.37021528    -0.33000
C1122       C  0.51321020  0.05045768  0.38633809     0.36000
H1123       H  0.53089599  0.14674130  0.37882013     0.16400
O1124       O  0.97516234  0.15508267  0.34836782    -0.60500
H1125       H  0.96856618  0.02429510  0.36850741     0.16400
O1126       O  0.52519239  0.01599331  0.39902135    -0.60600
H1127       H  0.03310524  0.00228458  0.38079563     0.43400
H1128       H  0.48108469  0.15643067  0.32617080     0.43400
C1129       C  0.77501891  0.01392741  0.27064065    -0.05700
C1130       C  0.78029981  0.99355774  0.24277016    -0.33100
C1131       C  0.75500820  0.98232032  0.21999612     0.36100
C1132       C  0.72376737  0.99128047  0.22498441    -0.06100
C1133       C  0.71849423  0.01164953  0.25286892    -0.33000
C1134       C  0.74378620  0.02292875  0.27560981     0.36000
H1135       H  0.80417297  0.98766785  0.23794701     0.16400
O1136       O  0.76103660  0.96336498  0.19253390    -0.60500
H1137       H  0.69462545  0.01745240  0.25778869     0.16400
O1138       O  0.73777075  0.04192236  0.30306681    -0.60600
H1139       H  0.73207736  0.06887396  0.29616686     0.43400
H1140       H  0.76632058  0.93625074  0.19935844     0.45800
C1141       C  0.63335494  0.97650858  0.28100323    -0.05700
C1142       C  0.61045904  0.00611266  0.28057425    -0.33100
C1143       C  0.61045774  0.03215618  0.30643011     0.36100
C1144       C  0.63360474  0.02900606  0.33337247    -0.06100
C1145       C  0.65679031  0.99999277  0.33353041    -0.33000
C1146       C  0.65688814  0.97405255  0.30783080     0.36000
H1147       H  0.59250949  0.00941142  0.25999199     0.16400
O1148       O  0.58726614  0.05978755  0.30542539    -0.60500
H1149       H  0.67480683  0.99687319  0.35410755     0.16400
O1150       O  0.67975819  0.94590940  0.30965798    -0.60600
H1151       H  0.69904888  0.95936488  0.30432815     0.43400
H1152       H  0.56943572  0.04678184  0.31431169     0.43400
C1153       C  0.63180263  0.02653367  0.03057474    -0.05700
C1154       C  0.60865178  0.99685693  0.02996685    -0.33100
C1155       C  0.60841748  0.97054240  0.05573036     0.36100
C1156       C  0.63134198  0.97383011  0.08289396    -0.06100
C1157       C  0.65492803  0.00261984  0.08302892    -0.33000
C1158       C  0.65526323  0.02876632  0.05751257     0.36000
H1159       H  0.59072414  0.99371389  0.00932258     0.16400
O1160       O  0.58480993  0.94316751  0.05476185    -0.60500
H1161       H  0.67303501  0.00552964  0.10357333     0.16400
O1162       O  0.67897677  0.05608842  0.05921706    -0.60600
H1163       H  0.67103712  0.07859358  0.07060684     0.43400
H1164       H  0.59235359  0.92077795  0.04290103     0.43400
C1165       C  0.72419446  0.01450715  0.47688353    -0.05700
C1166       C  0.71828798  0.99231431  0.50366049    -0.33100
C1167       C  0.74314110  0.98021720  0.02639084     0.36100
C1168       C  0.77450514  0.99043769  0.02255526    -0.06100
C1169       C  0.78036857  0.01308678  0.99602709    -0.33000
C1170       C  0.75557007  0.02475816  0.47309841     0.36000
H1171       H  0.69426382  0.98554382  0.50770170     0.16400
O1172       O  0.73657071  0.95909776  0.05266989    -0.60500
H1173       H  0.80438192  0.02011976  0.99210624     0.16400
O1174       O  0.76220963  0.04650487  0.44720529    -0.60600
H1175       H  0.76651139  0.02724382  0.93063653     0.43400
H1176       H  0.73097796  0.93257976  0.54435565     0.43400
C1177       C  0.86731613  0.97630267  0.46714445    -0.05700
C1178       C  0.89203707  0.00358576  0.46620697    -0.33100
C1179       C  0.89223829  0.02946691  0.44017413     0.36100
C1180       C  0.86724125  0.02880197  0.41475603    -0.06100
C1181       C  0.84265648  0.00168741  0.41572040    -0.33000
C1182       C  0.84255815  0.97557950  0.44127154     0.36000
H1183       H  0.91126272  0.00505962  0.48576344     0.16400
O1184       O  0.91738264  0.05434256  0.43939305    -0.60500
H1185       H  0.82348723  0.00016545  0.39607029     0.16400
O1186       O  0.81834839  0.94895244  0.44019845    -0.60600
H1187       H  0.80010765  0.96352493  0.44650575     0.43400
H1188       H  0.93220207  0.04036116  0.42701334     0.43400
C1189       C  0.86560881  0.97389529  0.16523759    -0.05700
C1190       C  0.89195986  0.97458707  0.18895447    -0.33100
C1191       C  0.89365663  0.00107533  0.21472980     0.36100
C1192       C  0.86848587  0.02722344  0.21726419    -0.06100
C1193       C  0.84217409  0.02611711  0.19339412    -0.33000
C1194       C  0.84061180  0.99993024  0.16771876     0.36000
H1195       H  0.91179193  0.95558486  0.18685604     0.16400
O1196       O  0.91989952  0.00073229  0.23736772    -0.60500
H1197       H  0.82216851  0.04502787  0.19487322     0.16400
O1198       O  0.81411326  0.99939692  0.14533939    -0.60600
H1199       H  0.81604836  0.02258229  0.13154232     0.43400
H1200       H  0.93432777  0.02061125  0.22998068     0.43400
C1201       C  0.71862090  0.84383818  0.13547622    -0.05700
C1202       C  0.74788346  0.83517380  0.15341233    -0.33100
C1203       C  0.77563444  0.83433001  0.13876278     0.36100
C1204       C  0.77465843  0.84269245  0.10556923    -0.06100
C1205       C  0.74506080  0.84724221  0.08703516    -0.33000
C1206       C  0.71724805  0.84772568  0.10158044     0.36000
H1207       H  0.74964484  0.83107396  0.17928031     0.16400
O1208       O  0.80378853  0.82755728  0.15759694    -0.60500
H1209       H  0.74351320  0.85324728  0.06142408     0.16400
O1210       O  0.68931102  0.85533421  0.08260880    -0.60600
H1211       H  0.68044603  0.82941279  0.07592982     0.43400
H1212       H  0.80684251  0.79898192  0.15669233     0.43400
C1213       C  0.96671423  0.91683296  0.10930033    -0.05700
C1214       C  0.98160318  0.95225806  0.11932017    -0.33100
C1215       C  0.51256714  0.95317768  0.13561497     0.36100
C1216       C  0.52936748  0.91818052  0.14265693    -0.06100
C1217       C  0.51423000  0.88286075  0.13299230    -0.33000
C1218       C  0.98364382  0.88192324  0.11638572     0.36000
H1219       H  0.96913707  0.97949838  0.11481239     0.16400
O1220       O  0.52592676  0.98849846  0.14474584    -0.60500
H1221       H  0.52637407  0.85543216  0.13767846     0.16400
O1222       O  0.97054688  0.84635308  0.10758049    -0.60600
H1223       H  0.47637605  0.84133892  0.08570874     0.43400
H1224       H  0.03487175  0.99834794  0.12549701     0.43400
C1225       C  0.62265296  0.28712690  0.01701285    -0.05700
C1226       C  0.61191583  0.28485934  0.48357890    -0.33100
C1227       C  0.61505100  0.25075160  0.46577353     0.36100
C1228       C  0.62900367  0.21751791  0.48114904    -0.06100
C1229       C  0.63994280  0.21994274  0.01450719    -0.33000
C1230       C  0.63686971  0.25401737  0.03227687     0.36000
H1231       H  0.60072701  0.30965883  0.47091333     0.16400
O1232       O  0.60396600  0.25028637  0.43350447    -0.60500
H1233       H  0.65118429  0.19521539  0.02722418     0.16400
O1234       O  0.64812281  0.25449346  0.06450301    -0.60600
H1235       H  0.63081303  0.24344032  0.07550018     0.43400
H1236       H  0.62171685  0.26017483  0.42254513     0.43400
C1237       C  0.87638779  0.28676089  0.23061914    -0.05700
C1238       C  0.87696134  0.28750108  0.26451388    -0.33100
C1239       C  0.87471620  0.25331609  0.28243036     0.36100
C1240       C  0.87181710  0.21704726  0.26673669    -0.06100
C1241       C  0.87089152  0.21628231  0.23279270    -0.33000
C1242       C  0.87322579  0.25052140  0.21485644     0.36000
H1243       H  0.87935701  0.31488245  0.27747219     0.16400
O1244       O  0.87500220  0.25593305  0.31521211    -0.60500
H1245       H  0.86840490  0.18885955  0.21990035     0.16400
O1246       O  0.87286374  0.24798673  0.18206078    -0.60600
H1247       H  0.89520671  0.24395925  0.17867910     0.43400
H1248       H  0.85260732  0.25966121  0.31854216     0.43400
C1249       C  0.72018398  0.41987963  0.11036657    -0.05700
C1250       C  0.73379817  0.38558904  0.12408626    -0.33100
C1251       C  0.76422534  0.38543928  0.14093301     0.36100
C1252       C  0.78255137  0.41992328  0.14390557    -0.06100
C1253       C  0.76871943  0.45463747  0.13111436    -0.33000
C1254       C  0.73785615  0.45487439  0.11460871     0.36000
H1255       H  0.72062534  0.35846308  0.12226876     0.16400
O1256       O  0.77586202  0.35100850  0.15404676    -0.60500
H1257       H  0.78213688  0.48158383  0.13307823     0.16400
O1258       O  0.72535061  0.48949293  0.10280963    -0.60600
H1259       H  0.73233606  0.49230663  0.08118104     0.43400
H1260       H  0.76976486  0.35050758  0.17619559     0.43400
C1261       C  0.97360138  0.34532042  0.14207344    -0.05700
C1262       C  0.50327546  0.34745252  0.16091734    -0.33100
C1263       C  0.53132569  0.34735743  0.14660856     0.36100
C1264       C  0.53023011  0.34527210  0.11261863    -0.06100
C1265       C  0.00064269  0.33975912  0.09411888    -0.33000
C1266       C  0.97265559  0.33963642  0.10845644     0.36000
H1267       H  0.50482679  0.35164311  0.18676763     0.16400
O1268       O  0.55945254  0.35215841  0.16608517    -0.60500
H1269       H  0.99890453  0.33749364  0.06810021     0.16400
O1270       O  0.94441146  0.33603439  0.08897623    -0.60600
H1271       H  0.93940741  0.30779608  0.08880063     0.43400
H1272       H  0.56623143  0.32545329  0.17272719     0.43400
C1273       C  0.87736044  0.71731428  0.48181118    -0.05700
C1274       C  0.87154447  0.75228430  0.46497239    -0.33100
C1275       C  0.86766050  0.78715244  0.48139290     0.36100
C1276       C  0.87002573  0.78784862  0.01563808    -0.06100
C1277       C  0.87519511  0.75270560  0.03239616    -0.33000
C1278       C  0.87860212  0.71775798  0.01593675     0.36000
H1279       H  0.87058565  0.75287535  0.43894299     0.16400
O1280       O  0.86224856  0.82053740  0.46353762    -0.60500
H1281       H  0.87602952  0.75204653  0.05841222     0.16400
O1282       O  0.88224810  0.68397196  0.03354679    -0.60600
H1283       H  0.90466549  0.68392027  0.04337107     0.43400
H1284       H  0.83929699  0.82015612  0.45574378     0.43400
C1285       C  0.88480256  0.52817297  0.33577081    -0.05700
C1286       C  0.85881638  0.52794263  0.31163912    -0.33100
C1287       C  0.85750431  0.50197061  0.28553000     0.36100
C1288       C  0.88258444  0.47559234  0.28321651    -0.06100
C1289       C  0.90856442  0.47624493  0.30748637    -0.33000
C1290       C  0.90974561  0.50196794  0.33349659     0.36000
H1291       H  0.83900001  0.54704111  0.31354930     0.16400
O1292       O  0.83134945  0.50231595  0.26276640    -0.60500
H1293       H  0.92853278  0.45723989  0.30612370     0.16400
O1294       O  0.93585743  0.50191924  0.35635973    -0.60600
H1295       H  0.93316030  0.47894550  0.37017096     0.43400
H1296       H  0.83475579  0.52440998  0.24828241     0.43400
C1297       C  0.88260084  0.53196349  0.03362029    -0.05700
C1298       C  0.86152067  0.50004115  0.03247976    -0.33100
C1299       C  0.86201243  0.47402771  0.05846326     0.36100
C1300       C  0.88383111  0.47957662  0.08627909    -0.06100
C1301       C  0.90458297  0.51172111  0.08748726    -0.33000
C1302       C  0.90416855  0.53760550  0.06168353     0.36000
H1303       H  0.84500223  0.49455635  0.01104942     0.16400
O1304       O  0.84086942  0.44365227  0.05646372    -0.60500
H1305       H  0.92139230  0.51705548  0.10874601     0.16400
O1306       O  0.92492672  0.56843134  0.06435998    -0.60600
H1307       H  0.94537886  0.55747750  0.05977788     0.43400
H1308       H  0.82168632  0.45425862  0.06437313     0.43400
C1309       C  0.97632892  0.51657624  0.48011101    -0.05700
C1310       C  0.00639959  0.53407571  0.98153170    -0.33100
C1311       C  0.53153181  0.52169816  0.00368786     0.36100
C1312       C  0.52719835  0.49048762  0.02451648    -0.06100
C1313       C  0.49707298  0.47316643  0.52328960    -0.33000
C1314       C  0.97180131  0.48592286  0.50141292     0.36000
H1315       H  0.01045720  0.55809542  0.96571909     0.16400
O1316       O  0.56048125  0.53922789  0.00362444    -0.60500
H1317       H  0.49312050  0.44889474  0.53889935     0.16400
O1318       O  0.94286999  0.46823723  0.50120673    -0.60600
H1319       H  0.93382114  0.47940847  0.51988648     0.43400
H1320       H  0.56039403  0.56165297  0.01854455     0.43400
C1321       C  0.62921912  0.78713685  0.23305757    -0.05700
C1322       C  0.62095401  0.75257005  0.21626989    -0.33100
C1323       C  0.61854536  0.71720099  0.23264764     0.36100
C1324       C  0.62415071  0.71548558  0.26693530    -0.06100
C1325       C  0.63238911  0.75010008  0.28374781    -0.33000
C1326       C  0.63477190  0.78550624  0.26732286     0.36000
H1327       H  0.61687707  0.75266579  0.19014778     0.16400
O1328       O  0.61037492  0.68452047  0.21457672    -0.60500
H1329       H  0.63644697  0.74999688  0.30986888     0.16400
O1330       O  0.64258138  0.81836043  0.28528630    -0.60600
H1331       H  0.62211465  0.83038279  0.28844798     0.43400
H1332       H  0.63063230  0.67377605  0.20929420     0.43400
C1333       C  0.61951476  0.47507002  0.46815249    -0.05700
C1334       C  0.64558967  0.50007397  0.46628262    -0.33100
C1335       C  0.64618426  0.52604144  0.44041610     0.36100
C1336       C  0.62037853  0.52763114  0.41598085    -0.06100
C1337       C  0.59449786  0.50265473  0.41767927    -0.33000
C1338       C  0.59379059  0.47674271  0.44333040     0.36000
H1339       H  0.66559972  0.49973875  0.48502363     0.16400
O1340       O  0.67246781  0.54875898  0.43876384    -0.60500
H1341       H  0.57471205  0.50287797  0.39864211     0.16400
O1342       O  0.56779819  0.45311150  0.44362393    -0.60600
H1343       H  0.55179976  0.46943228  0.45241513     0.43400
H1344       H  0.68562018  0.53394928  0.42509268     0.43400
C1345       C  0.62164567  0.52582314  0.21858549    -0.05700
C1346       C  0.64621771  0.49874058  0.21733345    -0.33100
C1347       C  0.64572570  0.47258413  0.19148779     0.36100
C1348       C  0.62048002  0.47332168  0.16638759    -0.06100
C1349       C  0.59582834  0.49981229  0.16787206    -0.33000
C1350       C  0.59627277  0.52595288  0.19333210     0.36000
H1351       H  0.66579717  0.49756128  0.23652352     0.16400
O1352       O  0.67080866  0.44810273  0.19010837    -0.60500
H1353       H  0.57622510  0.50085165  0.14865799     0.16400
O1354       O  0.57126929  0.55088233  0.19340852    -0.60600
H1355       H  0.57727711  0.57446640  0.18186301     0.43400
H1356       H  0.66547994  0.42419465  0.20164127     0.43400
C1357       C  0.72139814  0.58529997  0.36042070    -0.05700
C1358       C  0.73311721  0.61758697  0.37900873    -0.33100
C1359       C  0.76371276  0.61786523  0.39552595     0.36100
C1360       C  0.78363650  0.58559435  0.39353300    -0.06100
C1361       C  0.77179302  0.55290308  0.37555316    -0.33000
C1362       C  0.74104272  0.55259896  0.35903433     0.36000
H1363       H  0.71831614  0.64272613  0.38125384     0.16400
O1364       O  0.77389588  0.65003118  0.41341784    -0.60500
H1365       H  0.78679650  0.52795554  0.37330354     0.16400
O1366       O  0.73071777  0.52042611  0.34125000    -0.60600
H1367       H  0.73610993  0.52566276  0.31925715     0.43400
H1368       H  0.76888969  0.64441070  0.43552522     0.43400
C1369       C  0.53064688  0.65619624  0.35935415    -0.05700
C1370       C  0.53292462  0.65847066  0.39321305    -0.33100
C1371       C  0.50585174  0.65905887  0.40906617     0.36100
C1372       C  0.97549298  0.65782226  0.39109481    -0.06100
C1373       C  0.97330338  0.65866978  0.35719846    -0.33000
C1374       C  0.00033964  0.65785783  0.34137227     0.36000
H1375       H  0.55582054  0.65769374  0.40774218     0.16400
O1376       O  0.50952974  0.65897012  0.44215637    -0.60500
H1377       H  0.95041304  0.65792439  0.34265146     0.16400
O1378       O  0.99654655  0.65578366  0.30833672    -0.60600
H1379       H  0.99677307  0.68321264  0.30091556     0.43400
H1380       H  0.51331638  0.63134405  0.44847165     0.43400
C1381       C  0.52944868  0.51099905  0.27337745    -0.05700
C1382       C  0.49915753  0.52619451  0.27515087    -0.33100
C1383       C  0.97337518  0.51494848  0.25324502     0.36100
C1384       C  0.97736143  0.48733862  0.22930007    -0.06100
C1385       C  0.00762892  0.47190110  0.22759276    -0.33000
C1386       C  0.53349461  0.48329755  0.24946215     0.36000
H1387       H  0.49549740  0.54775266  0.29322427     0.16400
O1388       O  0.94418782  0.52979930  0.25654548    -0.60500
H1389       H  0.01118244  0.45020972  0.20958193     0.16400
O1390       O  0.56272117  0.46848444  0.24622230    -0.60600
H1391       H  0.56427417  0.44415248  0.25911090     0.43400
H1392       H  0.94235578  0.55365343  0.24306442     0.43400
Fe1393     Fe  0.62906529  0.62842274  0.84954022     1.65800
Fe1394     Fe  0.57937752  0.60738742  0.78410761     1.73200
Fe1395     Fe  0.62772068  0.53876345  0.81659527     1.54400
O1396       O  0.67312211  0.55374650  0.83892200    -0.81900
O1397       O  0.55258229  0.56500383  0.80046931    -0.80200
O1398       O  0.67442271  0.61844628  0.84087760    -0.84400
O1399       O  0.63280551  0.58422876  0.88562925    -0.79300
O1400       O  0.64156828  0.54532105  0.77191503    -0.81000
O1401       O  0.55768262  0.64527122  0.81332388    -0.83800
C1402       C  0.62198346  0.54925989  0.88574134     0.97000
C1403       C  0.68801243  0.58574094  0.84515032     1.04400
O1404       O  0.61309073  0.59222211  0.81630505    -1.12800
O1405       O  0.60548602  0.65096544  0.76835247    -0.75200
O1406       O  0.62636183  0.67582255  0.81567733    -0.78700
O1407       O  0.61303269  0.53053109  0.86014293    -0.79400
C1408       C  0.61889399  0.67861843  0.78485064     0.95900
O1409       O  0.58470221  0.63881511  0.86167382    -0.77300
O1410       O  0.59582777  0.57022294  0.75014398    -0.82500
C1411       C  0.55668782  0.53061791  0.79178160     0.98500
C1412       C  0.62033676  0.54960870  0.74802332     1.04400
O1413       O  0.58428328  0.51606727  0.79456120    -0.78200
C1414       C  0.55934799  0.64689579  0.84385311     1.02700
Fe1415     Fe  0.87659991  0.63050195  0.90061959     1.65800
Fe1416     Fe  0.92615519  0.61206533  0.96700838     1.73200
Fe1417     Fe  0.87820684  0.54207662  0.93531963     1.54400
O1418       O  0.83273773  0.55577429  0.91302531    -0.81900
O1419       O  0.95366909  0.57005042  0.95196866    -0.80200
O1420       O  0.83109614  0.62034467  0.90922334    -0.84400
O1421       O  0.87314006  0.58551331  0.86529006    -0.79300
O1422       O  0.86420921  0.55008639  0.97974616    -0.81000
O1423       O  0.94778994  0.64971960  0.93718216    -0.83800
C1424       C  0.88374989  0.55056453  0.86578128     0.97000
C1425       C  0.81755128  0.58733875  0.90672575     1.04400
O1426       O  0.89277797  0.59549161  0.93460098    -1.12800
O1427       O  0.89918783  0.65496277  0.98145354    -0.75200
O1428       O  0.87847468  0.67832734  0.93354431    -0.78700
O1429       O  0.89257574  0.53253657  0.89174864    -0.79400
C1430       C  0.88490875  0.68138643  0.96440936     0.95900
O1431       O  0.92117284  0.64112271  0.88882303    -0.77300
O1432       O  0.90986043  0.57538433  0.50187377    -0.82500
C1433       C  0.94940087  0.53575762  0.96095290     0.98500
C1434       C  0.88502446  0.55497872  0.50391595     1.04400
O1435       O  0.92178386  0.52081347  0.95778223    -0.78200
C1436       C  0.94647842  0.64983584  0.90663763     1.02700
Fe1437     Fe  0.87548128  0.37562981  0.65028839     1.65800
Fe1438     Fe  0.92420867  0.39260402  0.71740409     1.73200
Fe1439     Fe  0.87821770  0.46363673  0.68538562     1.54400
O1440       O  0.89303199  0.47309179  0.64211632    -0.81900
O1441       O  0.90879468  0.43028348  0.75222675    -0.80200
O1442       O  0.87225470  0.42107865  0.61524574    -0.84400
O1443       O  0.83026389  0.38594242  0.65918232    -0.79300
O1444       O  0.92253095  0.48372962  0.70774989    -0.81000
O1445       O  0.89538329  0.35076149  0.73118362    -0.83800
C1446       C  0.81676532  0.41882349  0.65677574     0.97000
C1447       C  0.88321239  0.45601299  0.61595903     1.04400
O1448       O  0.89183191  0.41015270  0.68458336    -1.12800
O1449       O  0.94511705  0.35419755  0.68746046    -0.75200
O1450       O  0.91998128  0.36509978  0.63871617    -0.78700
O1451       O  0.83221767  0.45050073  0.66300933    -0.79400
C1452       C  0.94448267  0.35464158  0.65690026     0.95900
O1453       O  0.87718171  0.32699008  0.68262991    -0.77300
O1454       O  0.95344020  0.43340244  0.70298846    -0.82500
C1455       C  0.88444492  0.45150558  0.75388269     0.98500
C1456       C  0.94985587  0.46815690  0.71100147     1.04400
O1457       O  0.86379573  0.45598189  0.72961977    -0.78200
C1458       C  0.88274794  0.32359027  0.71353981     1.02700
Fe1459     Fe  0.62849448  0.37367908  0.59949274     1.65800
Fe1460     Fe  0.57675203  0.39399161  0.53504865     1.73200
Fe1461     Fe  0.62564446  0.46320572  0.56668108     1.54400
O1462       O  0.61165848  0.47073558  0.61055103    -0.81900
O1463       O  0.59290009  0.43106572  0.00022343    -0.80200
O1464       O  0.63249125  0.41746248  0.63555943    -0.84400
O1465       O  0.67353493  0.38537645  0.58984811    -0.79300
O1466       O  0.58204826  0.48513829  0.54516590    -0.81000
O1467       O  0.60220135  0.35030678  0.51887830    -0.83800
C1468       C  0.68675233  0.41843490  0.59473085     0.97000
C1469       C  0.62140526  0.45207270  0.63597856     1.04400
O1470       O  0.61119240  0.40956253  0.56664446    -1.12800
O1471       O  0.55547912  0.35650417  0.56541208    -0.75200
O1472       O  0.58467516  0.36167669  0.61284611    -0.78700
O1473       O  0.67136474  0.44986454  0.58868484    -0.79400
C1474       C  0.55853767  0.35421990  0.59604683     0.95900
O1475       O  0.62570074  0.32677608  0.56564370    -0.77300
O1476       O  0.55014185  0.43623738  0.55144887    -0.82500
C1477       C  0.61757402  0.45177216  0.99788287     0.98500
C1478       C  0.55435641  0.47061421  0.54269212     1.04400
O1479       O  0.63882406  0.45653052  0.52175671    -0.78200
C1480       C  0.61699048  0.32349861  0.53509894     1.02700
Fe1481     Fe  0.87319899  0.87323100  0.59846084     1.65800
Fe1482     Fe  0.82432738  0.89402159  0.53226138     1.73200
Fe1483     Fe  0.87256810  0.96283186  0.56571211     1.54400
O1484       O  0.85809492  0.97088319  0.60936361    -0.81900
O1485       O  0.84059393  0.93213393  0.99861505    -0.80200
O1486       O  0.87678610  0.91697125  0.63487406    -0.84400
O1487       O  0.91886493  0.88356650  0.59058119    -0.79300
O1488       O  0.82889108  0.98479375  0.54396975    -0.81000
O1489       O  0.85143148  0.85189054  0.51681798    -0.83800
C1490       C  0.93287103  0.91619744  0.59456942     0.97000
C1491       C  0.86656330  0.95205882  0.63498056     1.04400
O1492       O  0.85759260  0.90947232  0.56519649    -1.12800
O1493       O  0.80269959  0.85472849  0.56067859    -0.75200
O1494       O  0.82852540  0.86205118  0.60960239    -0.78700
O1495       O  0.91815382  0.94814343  0.58807271    -0.79400
C1496       C  0.80376604  0.85285047  0.59115700     0.95900
O1497       O  0.87077590  0.82645073  0.56438944    -0.77300
O1498       O  0.79655756  0.93530200  0.54825296    -0.82500
C1499       C  0.86533042  0.95270405  0.99671236     0.98500
C1500       C  0.80112925  0.97015374  0.54088608     1.04400
O1501       O  0.88639461  0.95685895  0.52082535    -0.78200
C1502       C  0.86427415  0.82419748  0.53346073     1.02700
Fe1503     Fe  0.62175823  0.87376882  0.65029711     1.65800
Fe1504     Fe  0.67474603  0.89493761  0.71391006     1.73200
Fe1505     Fe  0.62508196  0.96328708  0.68311978     1.54400
O1506       O  0.63811223  0.97145140  0.63888186    -0.81900
O1507       O  0.65940207  0.93204435  0.74910747    -0.80200
O1508       O  0.61784271  0.91770196  0.61380907    -0.84400
O1509       O  0.57693233  0.88469633  0.66068858    -0.79300
O1510       O  0.66906733  0.98598734  0.70404455    -0.81000
O1511       O  0.64979552  0.85072165  0.73076099    -0.83800
C1512       C  0.56342639  0.91746408  0.65663726     0.97000
C1513       C  0.62907429  0.95250316  0.61336291     1.04400
O1514       O  0.63971698  0.90991057  0.68282240    -1.12800
O1515       O  0.69523322  0.85751361  0.68320944    -0.75200
O1516       O  0.66496720  0.86164321  0.63630216    -0.78700
O1517       O  0.57891733  0.94914318  0.66212497    -0.79400
C1518       C  0.69122575  0.85415059  0.65264715     0.95900
O1519       O  0.62501007  0.82694497  0.68449703    -0.77300
O1520       O  0.70094622  0.93770572  0.69677057    -0.82500
C1521       C  0.63470679  0.95229236  0.75172931     0.98500
C1522       C  0.69679056  0.97186469  0.70593092     1.04400
O1523       O  0.61288884  0.95594902  0.72829783    -0.78200
C1524       C  0.63449221  0.82379633  0.71495056     1.02700
Fe1525     Fe  0.62372891  0.12963874  0.89955666     1.65800
Fe1526     Fe  0.67420533  0.11024685  0.96510899     1.73200
Fe1527     Fe  0.62618534  0.04053224  0.93282672     1.54400
O1528       O  0.58037974  0.05426287  0.91053765    -0.81900
O1529       O  0.70187697  0.06854031  0.94959652    -0.80200
O1530       O  0.57862919  0.11881075  0.90893439    -0.84400
O1531       O  0.62016004  0.08529037  0.86361931    -0.79300
O1532       O  0.61242963  0.04701944  0.97746617    -0.81000
O1533       O  0.69559264  0.14817516  0.93495763    -0.83800
C1534       C  0.63167672  0.05081139  0.86358139     0.97000
C1535       C  0.56509969  0.08591009  0.90468677     1.04400
O1536       O  0.64051453  0.09411823  0.93290992    -1.12800
O1537       O  0.64752895  0.15333833  0.98028944    -0.75200
O1538       O  0.62646968  0.17731933  0.93277281    -0.78700
O1539       O  0.64090311  0.03258277  0.88932476    -0.79400
C1540       C  0.63413622  0.18064948  0.96347254     0.95900
O1541       O  0.66761433  0.14081197  0.88708648    -0.77300
O1542       O  0.65803700  0.07252872  0.49969349    -0.82500
C1543       C  0.69754552  0.03399859  0.95786537     0.98500
C1544       C  0.63356773  0.05118988  0.50148662     1.04400
O1545       O  0.66990439  0.01911931  0.95489156    -0.78200
C1546       C  0.69322930  0.14935669  0.90427891     1.02700
Fe1547     Fe  0.87580422  0.12976427  0.84842993     1.65800
Fe1548     Fe  0.82603153  0.10990873  0.78235875     1.73200
Fe1549     Fe  0.87341387  0.04058630  0.81522249     1.54400
O1550       O  0.91919263  0.05487243  0.83765602    -0.81900
O1551       O  0.79778959  0.06817667  0.79765244    -0.80200
O1552       O  0.92102660  0.11947547  0.83937994    -0.84400
O1553       O  0.87959205  0.08551593  0.88440594    -0.79300
O1554       O  0.88758703  0.04730380  0.77072351    -0.81000
O1555       O  0.80483079  0.14809576  0.81206515    -0.83800
C1556       C  0.86841469  0.05074572  0.88451037     0.97000
C1557       C  0.93455135  0.08671434  0.84333567     1.04400
O1558       O  0.85922658  0.09399761  0.81502351    -1.12800
O1559       O  0.85331468  0.15276555  0.76724756    -0.75200
O1560       O  0.87319312  0.17727116  0.81507412    -0.78700
O1561       O  0.85869435  0.03251794  0.85882240    -0.79400
C1562       C  0.86633608  0.18025698  0.78425502     0.95900
O1563       O  0.83162590  0.14054308  0.86055121    -0.77300
O1564       O  0.84219561  0.07230764  0.74809578    -0.82500
C1565       C  0.80192823  0.03355114  0.78960210     0.98500
C1566       C  0.86676020  0.05144213  0.74650132     1.04400
O1567       O  0.82952758  0.01876701  0.79280225    -0.78200
C1568       C  0.80651547  0.14944682  0.84269194     1.02700
C1569       C  0.77777942  0.15881989  0.85802274    -0.05700
C1570       C  0.74805392  0.15702319  0.83936257    -0.33100
C1571       C  0.72021787  0.15643112  0.85386174     0.36100
C1572       C  0.72153272  0.15832389  0.88788453    -0.06100
C1573       C  0.75115935  0.16362598  0.90631305    -0.33000
C1574       C  0.77902274  0.16396344  0.89175352     0.36000
H1575       H  0.74626006  0.15338699  0.81344066     0.16400
O1576       O  0.69198473  0.15214505  0.83441971    -0.60500
H1577       H  0.75300402  0.16549638  0.93236170     0.16400
O1578       O  0.80738854  0.16715814  0.91108177    -0.60600
H1579       H  0.81247515  0.19538041  0.91156972     0.43400
H1580       H  0.69006426  0.12388424  0.82960697     0.43400
C1581       C  0.53129679  0.08509478  0.89006491    -0.05700
C1582       C  0.51760445  0.11969781  0.87693956    -0.33100
C1583       C  0.98694037  0.12028498  0.86057842     0.36100
C1584       C  0.96856784  0.08583324  0.85719793    -0.06100
C1585       C  0.98219023  0.05108003  0.87021619    -0.33000
C1586       C  0.51320831  0.05045724  0.88633972     0.36000
H1587       H  0.53089736  0.14673843  0.87881213     0.16400
O1588       O  0.97516331  0.15508110  0.84836174    -0.60500
H1589       H  0.96856501  0.02429592  0.86851031     0.16400
O1590       O  0.52518948  0.01599398  0.89902628    -0.60600
H1591       H  0.03310438  0.00228437  0.88079905     0.43400
H1592       H  0.48108649  0.15642330  0.82616226     0.43400
C1593       C  0.77501674  0.01392947  0.77064257    -0.05700
C1594       C  0.78029779  0.99355957  0.74277231    -0.33100
C1595       C  0.75500640  0.98232252  0.71999791     0.36100
C1596       C  0.72376550  0.99128289  0.72498576    -0.06100
C1597       C  0.71849215  0.01165247  0.75286995    -0.33000
C1598       C  0.74378399  0.02293164  0.77561108     0.36000
H1599       H  0.80417100  0.98766923  0.73794953     0.16400
O1600       O  0.76103510  0.96336726  0.69253582    -0.60500
H1601       H  0.69462331  0.01745579  0.75778932     0.16400
O1602       O  0.73776839  0.04192584  0.80306772    -0.60600
H1603       H  0.73207548  0.06887766  0.79616734     0.43400
H1604       H  0.76631907  0.93625279  0.69936051     0.45800
C1605       C  0.63335367  0.97650849  0.78100355    -0.05700
C1606       C  0.61045723  0.00611185  0.78057494    -0.33100
C1607       C  0.61045628  0.03215569  0.80643055     0.36100
C1608       C  0.63360412  0.02900653  0.83337223    -0.06100
C1609       C  0.65679017  0.99999395  0.83352984    -0.33000
C1610       C  0.65688768  0.97405342  0.80783049     0.36000
H1611       H  0.59250703  0.00940982  0.75999315     0.16400
O1612       O  0.58726419  0.05978641  0.80542627    -0.60500
H1613       H  0.67480724  0.99687509  0.85410657     0.16400
O1614       O  0.67975822  0.94591087  0.80965735    -0.60600
H1615       H  0.69904841  0.95936667  0.80432711     0.43400
H1616       H  0.56943434  0.04678033  0.81431307     0.43400
C1617       C  0.63180455  0.02653379  0.53057532    -0.05700
C1618       C  0.60865283  0.99685813  0.52996755    -0.33100
C1619       C  0.60841787  0.97054378  0.55573107     0.36100
C1620       C  0.63134245  0.97383070  0.58289464    -0.06100
C1621       C  0.65492953  0.00261909  0.58302947    -0.33000
C1622       C  0.65526558  0.02876519  0.55751290     0.36000
H1623       H  0.59072493  0.99371587  0.50932342     0.16400
O1624       O  0.58480964  0.94316981  0.55476255    -0.60500
H1625       H  0.67303665  0.00552807  0.60357385     0.16400
O1626       O  0.67898035  0.05608557  0.55921691    -0.60600
H1627       H  0.67104193  0.07859156  0.57060700     0.43400
H1628       H  0.59235294  0.92077977  0.54290214     0.43400
C1629       C  0.72419379  0.01450716  0.97688378    -0.05700
C1630       C  0.71828751  0.99231430  0.00366079    -0.33100
C1631       C  0.74314141  0.98021737  0.52639072     0.36100
C1632       C  0.77450546  0.99043791  0.52255529    -0.06100
C1633       C  0.78036912  0.01308676  0.49602709    -0.33000
C1634       C  0.75556938  0.02475818  0.97309853     0.36000
H1635       H  0.69426338  0.98554385  0.00770216     0.16400
O1636       O  0.73657085  0.95909802  0.55266979    -0.60500
H1637       H  0.80438253  0.02011956  0.49210631     0.16400
O1638       O  0.76220882  0.04650492  0.94720536    -0.60600
H1639       H  0.76651431  0.02724366  0.43063723     0.43400
H1640       H  0.73097805  0.93257917  0.04435562     0.43400
C1641       C  0.86731471  0.97630345  0.96714464    -0.05700
C1642       C  0.89203605  0.00358599  0.96620724    -0.33100
C1643       C  0.89223723  0.02946778  0.94017491     0.36100
C1644       C  0.86723968  0.02880409  0.91475736    -0.06100
C1645       C  0.84265424  0.00169053  0.91572188    -0.33000
C1646       C  0.84255602  0.97558185  0.94127243     0.36000
H1647       H  0.91126219  0.00505870  0.98576327     0.16400
O1648       O  0.91738209  0.05434257  0.93939364    -0.60500
H1649       H  0.82348457  0.00016970  0.89607215     0.16400
O1650       O  0.81834583  0.94895534  0.94019931    -0.60600
H1651       H  0.80010532  0.96352818  0.94650635     0.43400
H1652       H  0.93220109  0.04036067  0.92701371     0.43400
C1653       C  0.86560624  0.97389499  0.66523806    -0.05700
C1654       C  0.89195634  0.97458513  0.68895602    -0.33100
C1655       C  0.89365292  0.00107291  0.71473162     0.36100
C1656       C  0.86848281  0.02722222  0.71726535    -0.06100
C1657       C  0.84217165  0.02611711  0.69339451    -0.33000
C1658       C  0.84060966  0.99993084  0.66771867     0.36000
H1659       H  0.91178801  0.95558204  0.68685823     0.16400
O1660       O  0.91989508  0.00072828  0.73737039    -0.60500
H1661       H  0.82216646  0.04502866  0.69487320     0.16400
O1662       O  0.81411186  0.99939897  0.64533834    -0.60600
H1663       H  0.81604826  0.02258439  0.63154162     0.43400
H1664       H  0.93432449  0.02060634  0.72998391     0.43400
C1665       C  0.71862012  0.84384064  0.63547584    -0.05700
C1666       C  0.74788238  0.83517395  0.65341152    -0.33100
C1667       C  0.77563325  0.83432956  0.63876185     0.36100
C1668       C  0.77465745  0.84269375  0.60556863    -0.06100
C1669       C  0.74506001  0.84724648  0.58703487    -0.33000
C1670       C  0.71724734  0.84773063  0.60158026     0.36000
H1671       H  0.74964364  0.83107247  0.67927932     0.16400
O1672       O  0.80378711  0.82755412  0.65759557    -0.60500
H1673       H  0.74351262  0.85325345  0.56142411     0.16400
O1674       O  0.68931070  0.85534265  0.58260918    -0.60600
H1675       H  0.68044529  0.82942238  0.57592689     0.43400
H1676       H  0.80683891  0.79897843  0.65669121     0.43400
C1677       C  0.96671337  0.91683285  0.60930229    -0.05700
C1678       C  0.98160424  0.95225865  0.61931663    -0.33100
C1679       C  0.51256635  0.95317894  0.63561509     0.36100
C1680       C  0.52936630  0.91818168  0.64265794    -0.06100
C1681       C  0.51422828  0.88286185  0.63299470    -0.33000
C1682       C  0.98364101  0.88192284  0.61639327     0.36000
H1683       H  0.96913974  0.97949936  0.61480442     0.16400
O1684       O  0.52592665  0.98849990  0.64474429    -0.60500
H1685       H  0.52637203  0.85543318  0.63768166     0.16400
O1686       O  0.97054191  0.84635193  0.60759438    -0.60600
H1687       H  0.47637358  0.84133823  0.58571303     0.43400
H1688       H  0.03487621  0.99834295  0.62548530     0.43400
C1689       C  0.62265188  0.28712651  0.51701326    -0.05700
C1690       C  0.61192361  0.28486308  0.98357694    -0.33100
C1691       C  0.61505773  0.25075514  0.96577153     0.36100
C1692       C  0.62900254  0.21751789  0.98114854    -0.06100
C1693       C  0.63995030  0.21994601  0.51450611    -0.33000
C1694       C  0.63687609  0.25402039  0.53227576     0.36000
H1695       H  0.60074105  0.30966550  0.97091008     0.16400
O1696       O  0.60398013  0.25029364  0.93350066    -0.60500
H1697       H  0.65119794  0.19522153  0.52722180     0.16400
O1698       O  0.64813619  0.25449996  0.56450015    -0.60600
H1699       H  0.63083114  0.24344317  0.57550218     0.43400
H1700       H  0.62173574  0.26017828  0.92254659     0.43400
C1701       C  0.87638703  0.28676053  0.73061937    -0.05700
C1702       C  0.87695866  0.28750132  0.76451388    -0.33100
C1703       C  0.87471332  0.25331649  0.78243053     0.36100
C1704       C  0.87181608  0.21704732  0.76673728    -0.06100
C1705       C  0.87089221  0.21628181  0.73279352    -0.33000
C1706       C  0.87322662  0.25052071  0.71485708     0.36000
H1707       H  0.87935299  0.31488302  0.77747179     0.16400
O1708       O  0.87499712  0.25593395  0.81521201    -0.60500
H1709       H  0.86840688  0.18885876  0.71990154     0.16400
O1710       O  0.87286629  0.24798555  0.68206166    -0.60600
H1711       H  0.89520986  0.24395923  0.67868120     0.43400
H1712       H  0.85260181  0.25965984  0.81854053     0.43400
C1713       C  0.72018349  0.41987955  0.61036807    -0.05700
C1714       C  0.73379732  0.38558942  0.62408903    -0.33100
C1715       C  0.76422473  0.38543975  0.64093536     0.36100
C1716       C  0.78255138  0.41992331  0.64390617    -0.06100
C1717       C  0.76871965  0.45463719  0.63111402    -0.33000
C1718       C  0.73785612  0.45487409  0.61460890     0.36000
H1719       H  0.72062402  0.35846380  0.62227279     0.16400
O1720       O  0.77586098  0.35100948  0.65405051    -0.60500
H1721       H  0.78213749  0.48158328  0.63307666     0.16400
O1722       O  0.72535083  0.48949237  0.60280900    -0.60600
H1723       H  0.73233310  0.49230282  0.58117857     0.43400
H1724       H  0.76976662  0.35051196  0.67620045     0.43400
C1725       C  0.97360146  0.34531863  0.64207244    -0.05700
C1726       C  0.50327582  0.34745033  0.66091829    -0.33100
C1727       C  0.53132604  0.34735563  0.64660952     0.36100
C1728       C  0.53023045  0.34527007  0.61261956    -0.06100
C1729       C  0.00064279  0.33976114  0.59411754    -0.33000
C1730       C  0.97265563  0.33963840  0.60845496     0.36000
H1731       H  0.50482704  0.35164132  0.68676854     0.16400
O1732       O  0.55945283  0.35215726  0.66608613    -0.60500
H1733       H  0.99890453  0.33749876  0.56809867     0.16400
O1734       O  0.94441145  0.33604022  0.58897424    -0.60600
H1735       H  0.93940592  0.30780221  0.58879645     0.43400
H1736       H  0.56623207  0.32545242  0.67272824     0.43400
C1737       C  0.87735901  0.71731386  0.98181028    -0.05700
C1738       C  0.87154473  0.75228434  0.96497170    -0.33100
C1739       C  0.86766142  0.78715258  0.98139242     0.36100
C1740       C  0.87002592  0.78784894  0.51563862    -0.06100
C1741       C  0.87519700  0.75270633  0.53239696    -0.33000
C1742       C  0.87860463  0.71775876  0.51593775     0.36000
H1743       H  0.87058688  0.75287564  0.93894239     0.16400
O1744       O  0.86225125  0.82053808  0.96353748    -0.60500
H1745       H  0.87603231  0.75204752  0.55841310     0.16400
O1746       O  0.88225215  0.68397308  0.53354809    -0.60600
H1747       H  0.90466987  0.68392232  0.54337145     0.43400
H1748       H  0.83930000  0.82015786  0.95574248     0.43400
C1749       C  0.88480435  0.52817182  0.83577070    -0.05700
C1750       C  0.85881949  0.52794439  0.81163749    -0.33100
C1751       C  0.85750737  0.50197297  0.78552798     0.36100
C1752       C  0.88258618  0.47559239  0.78321550    -0.06100
C1753       C  0.90856502  0.47624230  0.80748667    -0.33000
C1754       C  0.90974617  0.50196453  0.83349744     0.36000
H1755       H  0.83900406  0.54704473  0.81354669     0.16400
O1756       O  0.83135375  0.50232121  0.76276295    -0.60500
H1757       H  0.92853240  0.45723541  0.80612482     0.16400
O1758       O  0.93585682  0.50191291  0.85636198    -0.60600
H1759       H  0.93315755  0.47893862  0.87017231     0.43400
H1760       H  0.83476269  0.52441516  0.74827936     0.43400
C1761       C  0.88260368  0.53196273  0.53362062    -0.05700
C1762       C  0.86152077  0.50004321  0.53248079    -0.33100
C1763       C  0.86201226  0.47402880  0.55846362     0.36100
C1764       C  0.88383343  0.47957385  0.58627804    -0.06100
C1765       C  0.90458835  0.51171520  0.58748551    -0.33000
C1766       C  0.90417420  0.53760062  0.56168248     0.36000
H1767       H  0.84499999  0.49456157  0.51105160     0.16400
O1768       O  0.84086619  0.44365664  0.55646509    -0.60500
H1769       H  0.92139963  0.51704649  0.60874334     0.16400
O1770       O  0.92493526  0.56842349  0.56435836    -0.60600
H1771       H  0.94538567  0.55746708  0.55977363     0.43400
H1772       H  0.82168498  0.45426589  0.56437620     0.43400
C1773       C  0.97632838  0.51657752  0.98011313    -0.05700
C1774       C  0.00640017  0.53407448  0.48153017    -0.33100
C1775       C  0.53153184  0.52169643  0.50368681     0.36100
C1776       C  0.52719795  0.49048608  0.52451553    -0.06100
C1777       C  0.49707325  0.47316860  0.02329174    -0.33000
C1778       C  0.97180067  0.48592534  0.00141612     0.36000
H1779       H  0.01045782  0.55809491  0.46571828     0.16400
O1780       O  0.56048133  0.53922614  0.50362391    -0.60500
H1781       H  0.49312102  0.44889713  0.03890180     0.16400
O1782       O  0.94286927  0.46824018  0.00121070    -0.60600
H1783       H  0.93382057  0.47941258  0.01989014     0.43400
H1784       H  0.56039430  0.56165047  0.51854510     0.43400
C1785       C  0.62921934  0.78713739  0.73305792    -0.05700
C1786       C  0.62095463  0.75257043  0.71627033    -0.33100
C1787       C  0.61854624  0.71720142  0.73264823     0.36100
C1788       C  0.62415129  0.71548614  0.76693592    -0.06100
C1789       C  0.63238955  0.75010073  0.78374831    -0.33000
C1790       C  0.63477221  0.78550686  0.76732323     0.36000
H1791       H  0.61687787  0.75266603  0.69014822     0.16400
O1792       O  0.61037654  0.68452067  0.71457732    -0.60500
H1793       H  0.63644730  0.74999765  0.80986940     0.16400
O1794       O  0.64258154  0.81836115  0.78528656    -0.60600
H1795       H  0.62211474  0.83038296  0.78844871     0.43400
H1796       H  0.63063423  0.67377435  0.70929836     0.43400
C1797       C  0.61951484  0.47506806  0.96815057    -0.05700
C1798       C  0.64559076  0.50006987  0.96627937    -0.33100
C1799       C  0.64618515  0.52603740  0.94041291     0.36100
C1800       C  0.62037819  0.52762935  0.91597919    -0.06100
C1801       C  0.59449673  0.50265461  0.91767859    -0.33000
C1802       C  0.59378965  0.47674248  0.94332964     0.36000
H1803       H  0.66560169  0.49973303  0.98501935     0.16400
O1804       O  0.67246958  0.54875286  0.93875921    -0.60500
H1805       H  0.57471006  0.50287943  0.89864238     0.16400
O1806       O  0.56779630  0.45311324  0.94362447    -0.60600
H1807       H  0.55179928  0.46943527  0.95241714     0.43400
H1808       H  0.68561965  0.53394290  0.92508570     0.43400
C1809       C  0.62164739  0.52582481  0.71858516    -0.05700
C1810       C  0.64622000  0.49874312  0.71733271    -0.33100
C1811       C  0.64572750  0.47258568  0.69148765     0.36100
C1812       C  0.62048058  0.47332113  0.66638870    -0.06100
C1813       C  0.59582850  0.49981100  0.66787356    -0.33000
C1814       C  0.59627363  0.52595292  0.69333269     0.36000
H1815       H  0.66580027  0.49756532  0.73652199     0.16400
O1816       O  0.67081118  0.44810568  0.69010734    -0.60500
H1817       H  0.57622445  0.50084895  0.64866029     0.16400
O1818       O  0.57126993  0.55088206  0.69340918    -0.60600
H1819       H  0.57727679  0.57446531  0.68186225     0.43400
H1820       H  0.66548438  0.42419780  0.70164185     0.43400
C1821       C  0.72139771  0.58529800  0.86042158    -0.05700
C1822       C  0.73311809  0.61758668  0.87900664    -0.33100
C1823       C  0.76371365  0.61786494  0.89552363     0.36100
C1824       C  0.78363629  0.58559243  0.89353319    -0.06100
C1825       C  0.77179132  0.55289927  0.87555678    -0.33000
C1826       C  0.74104088  0.55259500  0.85903841     0.36000
H1827       H  0.71831808  0.64272736  0.88124952     0.16400
O1828       O  0.77389793  0.65003265  0.91341269    -0.60500
H1829       H  0.78679370  0.52795011  0.87330949     0.16400
O1830       O  0.73071437  0.52041987  0.84125778    -0.60600
H1831       H  0.73610626  0.52565209  0.81926445     0.43400
H1832       H  0.76889084  0.64441603  0.93552028     0.43400
C1833       C  0.53064625  0.65619543  0.85935461    -0.05700
C1834       C  0.53292392  0.65846974  0.89321352    -0.33100
C1835       C  0.50585094  0.65905835  0.90906662     0.36100
C1836       C  0.97549256  0.65782199  0.89109497    -0.06100
C1837       C  0.97330281  0.65866893  0.85719861    -0.33000
C1838       C  0.00033893  0.65785645  0.84137227     0.36000
H1839       H  0.55581984  0.65769262  0.90774264     0.16400
O1840       O  0.50952888  0.65897009  0.94215680    -0.60500
H1841       H  0.95041244  0.65792336  0.84265169     0.16400
O1842       O  0.99654556  0.65578163  0.80833674    -0.60600
H1843       H  0.99677330  0.68321040  0.80091524     0.43400
H1844       H  0.51331520  0.63134397  0.94847235     0.43400
C1845       C  0.52945008  0.51099873  0.77337490    -0.05700
C1846       C  0.49915895  0.52619396  0.77514855    -0.33100
C1847       C  0.97337723  0.51494862  0.75324063     0.36100
C1848       C  0.97736318  0.48733705  0.72929694    -0.06100
C1849       C  0.00763047  0.47189840  0.72759043    -0.33000
C1850       C  0.53349619  0.48329753  0.74945943     0.36000
H1851       H  0.49549873  0.54775198  0.79322201     0.16400
O1852       O  0.94419018  0.52980103  0.75654010    -0.60500
H1853       H  0.01118377  0.45020593  0.70958040     0.16400
O1854       O  0.56272288  0.46848508  0.74621924    -0.60600
H1855       H  0.56427551  0.44415143  0.75910622     0.43400
H1856       H  0.94235899  0.55365459  0.74305807     0.43400
loop_ 
_geom_bond_atom_site_label_1 
_geom_bond_atom_site_label_2 
_geom_bond_distance 
_geom_bond_site_symmetry_2 
_ccdc_geom_bond_type 
Fe1          O17   2.054       .  S
Fe1           O7   2.131       .  S
Fe1          O14   2.150       .  S
Fe1           O6   2.044       .  S
Fe1          O12   1.922       .  S
Fe2           O5   2.018       .  S
Fe2           O9   2.084       .  S
Fe2          O13   2.020       .  S
Fe2          O18   2.098       .  S
Fe2          O12   1.915       .  S
Fe3          O21   2.108       .  S
Fe3           O8   2.040       .  S
Fe3          O15   2.018       .  S
Fe3           O4   2.103       .  S
Fe3          O12   1.942       .  S
O4           C11   1.277       .  A
O5           C19   1.255       .  A
O6           C11   1.269       .  A
O7           C10   1.285       .  A
O8           C20   1.269       .  A
O9           C22   1.270       .  A
C10          O15   1.264       .  A
C10         C408   1.474       .  S
C11         C429   1.486       .  S
O13          C16   1.265       .  A
O14          C16   1.291       .  A
C16         C396   1.501       .  S
O17          C22   1.265       .  A
O18          C20   1.278       .  A
C19          O21   1.273       .  A
C19         C453   1.471       .  S
C20         C417   1.484       .  S
C22         C441   1.492       .  S
Fe23         O39   2.055       .  S
Fe23         O29   2.129       .  S
Fe23         O36   2.138       .  S
Fe23         O28   2.047       .  S
Fe23         O34   1.923       .  S
Fe24         O27   2.015       .  S
Fe24         O31   2.087       .  S
Fe24         O35   2.014       .  S
Fe24        O504   2.107       .  S
Fe24         O34   1.921       .  S
Fe25         O43   2.108       .  S
Fe25         O30   2.040       .  S
Fe25         O37   2.021       .  S
Fe25         O26   2.099       .  S
Fe25         O34   1.935       .  S
O26          C33   1.276       .  A
O27          C41   1.255       .  A
O28          C33   1.268       .  A
O29          C32   1.284       .  A
O30         C506   1.268       .  A
O31          C44   1.271       .  A
C32          O37   1.265       .  A
C32         C357   1.477       .  S
C33         C432   1.483       .  S
O35          C38   1.264       .  A
O36          C38   1.288       .  A
C38         C345   1.490       .  S
O39          C44   1.266       .  A
O40        Fe488   2.107   1_554  S
O40          C42   1.279       .  A
C41          O43   1.274       .  A
C41         C381   1.473       .  S
C42         O494   1.268   1_554  A
C42         C369   1.485       .  S
C44         C444   1.493       .  S
Fe45         O61   2.144       .  S
Fe45         O51   2.043       .  S
Fe45         O58   2.052       .  S
Fe45         O50   2.133       .  S
Fe45         O56   1.920       .  S
Fe46         O49   2.116       .  S
Fe46         O53   2.017       .  S
Fe46         O57   2.097       .  S
Fe46         O62   2.013       .  S
Fe46         O56   1.918       .  S
Fe47         O65   2.037       .  S
Fe47         O52   2.113       .  S
Fe47         O59   2.111       .  S
Fe47         O48   2.015       .  S
Fe47         O56   1.931       .  S
O48          C55   1.264       .  A
O49          C63   1.281       .  A
O50          C55   1.284       .  A
O51          C54   1.269       .  A
O52          C64   1.277       .  A
O53          C66   1.265       .  A
C54          O59   1.279       .  A
C54         C324   1.491       .  S
C55         C372   1.483       .  S
O57          C60   1.274       .  A
O58          C60   1.266       .  A
C60         C333   1.493       .  S
O61          C66   1.289       .  A
O62          C64   1.255       .  A
C63          O65   1.266       .  A
C63         C360   1.490       .  S
C64         C456   1.470       .  S
C66         C309   1.492       .  S
Fe67         O83   2.137       .  S
Fe67         O73   2.051       .  S
Fe67         O80   2.058       .  S
Fe67         O72   2.121       .  S
Fe67         O78   1.923       .  S
Fe68         O75   2.023       .  S
Fe68         O79   2.090       .  S
Fe68         O84   2.020       .  S
Fe68        O535   2.111       .  S
Fe68         O78   1.921       .  S
Fe69         O87   2.040       .  S
Fe69         O74   2.104       .  S
Fe69         O81   2.101       .  S
Fe69         O70   2.016       .  S
Fe69         O78   1.940       .  S
O70          C77   1.266       .  A
O71        Fe532   2.111       .  S
O71          C85   1.281       .  A
O72          C77   1.283       .  A
O73          C76   1.270       .  A
O74          C86   1.272       .  A
O75          C88   1.266       .  A
C76          O81   1.275       .  A
C76         C321   1.492       .  S
C77         C420   1.471       .  S
O79          C82   1.273       .  A
O80          C82   1.265       .  A
C82         C336   1.497       .  S
O83          C88   1.288       .  A
O84          C86   1.255       .  A
C85         O551   1.270       .  A
C85         C405   1.488       .  S
C86         C384   1.473       .  S
O87         C549   1.270   1_554  A
C88         C297   1.497       .  S
Fe89        O105   2.141       .  S
Fe89         O95   2.046       .  S
Fe89        O102   2.053       .  S
Fe89         O94   2.130       .  S
Fe89        O100   1.923       .  S
Fe90         O97   2.014       .  S
Fe90        O101   2.085       .  S
Fe90        O106   2.020       .  S
Fe90        O557   2.099   1_554  S
Fe90        O100   1.921       .  S
Fe91        O109   2.047       .  S
Fe91         O96   2.110       .  S
Fe91        O103   2.112       .  S
Fe91         O92   2.018       .  S
Fe91        O100   1.937       .  S
O92          C99   1.264       .  A
O93        Fe554   2.099       .  S
O93         C107   1.278       .  A
O94          C99   1.284       .  A
O95          C98   1.268       .  A
O96         C108   1.276       .  A
O97         C110   1.264       .  A
C98         O103   1.279       .  A
C98         C285   1.496       .  S
C99         C261   1.476       .  S
O101        C104   1.270       .  A
O102        C104   1.265       .  A
C104        C276   1.487       .  S
O105        C110   1.289       .  A
O106        C108   1.256       .  A
C107        O573   1.270       .  A
C107        C249   1.488       .  S
C108        C240   1.466       .  S
O109        C571   1.270   1_554  A
C110        C348   1.491       .  S
Fe111       O127   2.144       .  S
Fe111       O117   2.051       .  S
Fe111       O124   2.049       .  S
Fe111       O116   2.136       .  S
Fe111       O122   1.924       .  S
Fe112       O115   2.115       .  S
Fe112       O119   2.027       .  S
Fe112       O123   2.088       .  S
Fe112       O128   2.026       .  S
Fe112       O122   1.924       .  S
Fe113       O131   2.036       .  S
Fe113       O118   2.113       .  S
Fe113       O125   2.107       .  S
Fe113       O114   2.016       .  S
Fe113       O122   1.940       .  S
O114        C121   1.266       .  A
O115        C129   1.282       .  A
O116        C121   1.286       .  A
O117        C120   1.269       .  A
O118        C130   1.274       .  A
O119        C132   1.266       .  A
C120        O125   1.276       .  A
C120        C288   1.496       .  S
C121        C228   1.482       .  S
O123        C126   1.272       .  A
O124        C126   1.264       .  A
C126        C273   1.491       .  S
O127        C132   1.290       .  A
O128        C130   1.255       .  A
C129        O131   1.269       .  A
C129        C213   1.487       .  S
C130        C204   1.471       .  S
C132        C393   1.499       .  S
Fe133       O149   2.041       .  S
Fe133       O139   2.131       .  S
Fe133       O146   2.141       .  S
Fe133       O138   2.044       .  S
Fe133       O144   1.923       .  S
Fe134       O137   2.020       .  S
Fe134       O141   2.096       .  S
Fe134       O145   2.022       .  S
Fe134       O614   2.117       .  S
Fe134       O144   1.920       .  S
Fe135       O153   2.109       .  S
Fe135       O140   2.038       .  S
Fe135       O147   2.016       .  S
Fe135       O136   2.111       .  S
Fe135       O144   1.936       .  S
O136        C143   1.278       .  A
O137        C151   1.255       .  A
O138        C143   1.268       .  A
O139        C142   1.285       .  A
O140        C616   1.269       .  A
O141        C154   1.274       .  A
C142        O147   1.264       .  A
C142        C216   1.480       .  S
C143        C189   1.494       .  S
O145        C148   1.266       .  A
O146        C148   1.288       .  A
C148        C300   1.497       .  S
O149        C154   1.263       .  A
O150       Fe598   2.117       .  S
O150        C152   1.282   1_556  A
C151        O153   1.275       .  A
C151        C237   1.467       .  S
C152        O604   1.269   1_554  A
C152        C225   1.490       .  S
C154        C180   1.493       .  S
Fe155       O171   2.049       .  S
Fe155       O161   2.129       .  S
Fe155       O168   2.139       .  S
Fe155       O160   2.045       .  S
Fe155       O166   1.924       .  S
Fe156       O159   2.023       .  S
Fe156       O163   2.093       .  S
Fe156       O167   2.022       .  S
Fe156       O172   2.111       .  S
Fe156       O166   1.920       .  S
Fe157       O175   2.118       .  S
Fe157       O162   2.040       .  S
Fe157       O169   2.019       .  S
Fe157       O158   2.112       .  S
Fe157       O166   1.934       .  S
O158        C165   1.279       .  A
O159        C173   1.256       .  A
O160        C165   1.268       .  A
O161        C164   1.284       .  A
O162        C174   1.268       .  A
O163        C176   1.274       .  A
C164        O169   1.266       .  A
C164        C252   1.477       .  S
C165        C192   1.494       .  S
O167        C170   1.265       .  A
O168        C170   1.288       .  A
C170        C312   1.492       .  S
O171        C176   1.265       .  A
O172        C174   1.282       .  A
C173        O175   1.276       .  A
C173        C201   1.471       .  S
C174        C264   1.488       .  S
C176        C177   1.490       .  S
C177        C178   1.403       .  A
C177        C182   1.415       .  A
C178        C179   1.400       .  A
C178        H183   1.083       .  S
C179        C180   1.417       .  A
C179        O184   1.372       .  S
C180        C181   1.406       .  A
C181        C182   1.403       .  A
C181        H185   1.083       .  S
C182        O186   1.371       .  S
O184        H188   0.992       .  S
O186        H187   0.992       .  S
C189        C190   1.407       .  A
C189        C194   1.413       .  A
C190       C1119   1.398   1_455  A
C190        H195   1.083       .  S
C191        C192   1.413       .  A
C191       C1118   1.398       .  A
C191        O196   1.372       .  S
C192        C193   1.409       .  A
C193       C1122   1.407       .  A
C193        H197   1.083       .  S
C194       C1121   1.407   1_455  A
C194        O198   1.371       .  S
O196       H1128   0.993       .  S
O198       H1127   0.992       .  S
H199       O1126   0.992       .  S
H200       O1124   0.993       .  S
C201        C202   1.402   1_545  A
C201        C206   1.410       .  A
C202        C203   1.398       .  A
C202        H207   1.083       .  S
C203        C204   1.411       .  A
C203        O208   1.373       .  S
C204        C205   1.403   1_565  A
C205        C206   1.398       .  A
C205        H209   1.084       .  S
C206        O210   1.373       .  S
O208        H212   0.992       .  S
O210        H211   0.992       .  S
C213        C214   1.412   1_565  A
C213        C218   1.410       .  A
C214        C215   1.403       .  A
C214        H219   1.083       .  S
C215        C216   1.405       .  A
C215        O220   1.371       .  S
C216        C217   1.407   1_545  A
C217        C218   1.396       .  A
C217        H221   1.084       .  S
C218        O222   1.372       .  S
O220        H224   0.992       .  S
O222        H223   0.992       .  S
C225        C226   1.414   1_545  A
C225        C230   1.410       .  A
C226        C227   1.406       .  A
C226        H231   1.083       .  S
C227        C228   1.406       .  A
C227        O232   1.371       .  S
C228        C229   1.407   1_565  A
C229        C230   1.395       .  A
C229        H233   1.084       .  S
C230        O234   1.372       .  S
O232        H236   0.992       .  S
O234        H235   0.991       .  S
C237        C238   1.402   1_545  A
C237        C242   1.411       .  A
C238        C703   1.396       .  A
C238        H243   1.084       .  S
C239        C240   1.410       .  A
C239        C702   1.396       .  A
C239        O244   1.373       .  S
C240        C241   1.401   1_564  A
C241        C706   1.395       .  A
C241        H245   1.084       .  S
C242        C705   1.395       .  A
C242        O246   1.372       .  S
O244        H712   0.992       .  S
O246        H711   0.992       .  S
H247        O710   0.992       .  S
H248        O708   0.992       .  S
C249        C250   1.412   1_565  A
C249        C254   1.413       .  A
C250        C251   1.405       .  A
C250        H255   1.083       .  S
C251        C252   1.407       .  A
C251        O256   1.372       .  S
C252        C253   1.403       .  A
C253        C254   1.394   1_545  A
C253        H257   1.084       .  S
C254        O258   1.373       .  S
O256        H260   0.992       .  S
O258        H259   0.991       .  S
C261        C262   1.402       .  A
C261        C266   1.409       .  A
C262        C263   1.405   1_565  A
C262        H267   1.084       .  S
C263        C264   1.418       .  A
C263        O268   1.371       .  S
C264        C265   1.405       .  A
C265        C266   1.395   1_545  A
C265        H269   1.083       .  S
C266        O270   1.373       .  S
O268        H272   0.992       .  S
O270        H271   0.992   1_565  S
C273        C274   1.406       .  A
C273        C278   1.416       .  A
C274        C275   1.401       .  A
C274        H279   1.083       .  S
C275        C276   1.412       .  A
C275        O280   1.371       .  S
C276        C277   1.405       .  A
C277        C278   1.400       .  A
C277        H281   1.084       .  S
C278        O282   1.372       .  S
O280        H284   0.992       .  S
O282        H283   0.992       .  S
C285        C286   1.409       .  A
C285        C290   1.415       .  A
C286       C1215   1.408       .  A
C286        H291   1.083       .  S
C287        C288   1.414       .  A
C287       C1214   1.408   1_455  A
C287        O292   1.371       .  S
C288        C289   1.406       .  A
C289       C1218   1.399   1_455  A
C289        H293   1.083       .  S
C290       C1217   1.399       .  A
C290        O294   1.372       .  S
O292       H1224   0.992       .  S
O294       H1223   0.993       .  S
H295       O1222   0.993       .  S
H296       O1220   0.992       .  S
C297        C302   1.406       .  A
C297        C762   1.416   1_554  A
C298        C299   1.404       .  A
C298        C761   1.416       .  A
C298        H303   1.083       .  S
C299        C300   1.407       .  A
C299        O304   1.371       .  S
C300        C765   1.415       .  A
C301        C302   1.402       .  A
C301        C764   1.415   1_554  A
C301        H305   1.083       .  S
C302        O306   1.371       .  S
O304        H308   0.992       .  S
O306        H307   0.992       .  S
C309        C310   1.414       .  A
C309        C314   1.406       .  A
C310        C311   1.401       .  A
C310        H315   1.083       .  S
C311        C312   1.406       .  A
C311        O316   1.371       .  S
C312        C313   1.414       .  A
C313        C314   1.404       .  A
C313        H317   1.083       .  S
C314        O318   1.371       .  S
O316        H320   0.992       .  S
O318        H319   0.992       .  S
C321        C322   1.405       .  A
C321        C326   1.415       .  A
C322        C323   1.396       .  A
C322        H327   1.083       .  S
C323        C324   1.413       .  A
C323        O328   1.372       .  S
C324        C325   1.408       .  A
C325        C326   1.407       .  A
C325        H329   1.083       .  S
C326        O330   1.371       .  S
O328        H332   0.993       .  S
O330        H331   0.991       .  S
C333        C338   1.414       .  A
C333       C1262   1.405       .  A
C334        C335   1.404       .  A
C334       C1261   1.405   1_455  A
C334        H339   1.084       .  S
C335        C336   1.417       .  A
C335        O340   1.371       .  S
C336       C1265   1.406       .  A
C337        C338   1.402       .  A
C337       C1264   1.406       .  A
C337        H341   1.083       .  S
C338        O342   1.371       .  S
O340        H344   0.992       .  S
O342        H343   0.992       .  S
C345        C346   1.399       .  A
C345        C814   1.420       .  A
C346        C347   1.402       .  A
C346        H351   1.083       .  S
C347        C812   1.422       .  A
C347        O352   1.372       .  S
C348        C349   1.399       .  A
C348        C811   1.422   1_554  A
C349        C350   1.401       .  A
C349        H353   1.083       .  S
C350        C809   1.420   1_554  A
C350        O354   1.373       .  S
O352        H356   0.992       .  S
O354        H355   0.992       .  S
C357        C358   1.401       .  A
C357        C362   1.410       .  A
C358        C359   1.405       .  A
C358        H363   1.084       .  S
C359        C360   1.418       .  A
C359        O364   1.372       .  S
C360        C361   1.405       .  A
C361        C362   1.397       .  A
C361        H365   1.083       .  S
C362        O366   1.373       .  S
O364        H368   0.992       .  S
O366        H367   0.992       .  S
C369        C370   1.411       .  A
C369        C374   1.409       .  A
C370        C371   1.404       .  A
C370        H375   1.083       .  S
C371        C372   1.407       .  A
C371        O376   1.371       .  S
C372        C373   1.409       .  A
C373        C374   1.395       .  A
C373        H377   1.084       .  S
C374        O378   1.372       .  S
O376        H380   0.992       .  S
O378        H379   0.993       .  S
C381        C386   1.407       .  A
C381        C846   1.409       .  A
C382        C845   1.409       .  A
C382       C1311   1.393   1_556  A
C382        H387   1.083       .  S
C383        C384   1.406       .  A
C383       C1310   1.393   1_554  A
C383        O388   1.372       .  S
C384        C849   1.409   1_455  A
C385        C848   1.409   1_655  A
C385       C1314   1.395       .  A
C385        H389   1.084       .  S
C386       C1313   1.395       .  A
C386        O390   1.372       .  S
O388        H392   0.992       .  S
O390        H391   0.992       .  S
C393        C394   1.400       .  A
C393        C398   1.423       .  A
C394        C395   1.404       .  A
C394        H399   1.083       .  S
C395        C396   1.424       .  A
C395        O400   1.372       .  S
C396        C397   1.402       .  A
C397        C398   1.405       .  A
C397        H401   1.083       .  S
C398        O402   1.372       .  S
O400        H404   0.992       .  S
O402        H403   0.992       .  S
C405        C406   1.412       .  A
C405        C410   1.413       .  A
C406        C407   1.403       .  A
C406        H411   1.083       .  S
C407        C408   1.405       .  A
C407        O412   1.372       .  S
C408        C409   1.404       .  A
C409        C410   1.396       .  A
C409        H413   1.084       .  S
C410        O414   1.372       .  S
O412        H416   0.992       .  S
O414        H415   0.992       .  S
C417        C418   1.411       .  A
C417        C422   1.413       .  A
C418        C419   1.403       .  A
C418        H423   1.083       .  S
C419        C420   1.405       .  A
C419        O424   1.372       .  S
C420        C421   1.402       .  A
C421        C422   1.391       .  A
C421        H425   1.084       .  S
C422        O426   1.372       .  S
O424        H428   0.992       .  S
O426        H427   0.992       .  S
C429        C430   1.407       .  A
C429        C434   1.411       .  A
C430        C431   1.397       .  A
C430        H435   1.084       .  S
C431        C432   1.409       .  A
C431        O436   1.372       .  S
C432        C433   1.407       .  A
C433        C434   1.403       .  A
C433        H437   1.084       .  S
C434        O438   1.371       .  S
O436        H440   0.993       .  S
O438        H439   0.991       .  S
C441        C442   1.408       .  A
C441       C1374   1.412       .  A
C442        C443   1.403       .  A
C442        H447   1.083       .  S
C443       C1372   1.413   1_455  A
C443        O448   1.372       .  S
C444        C445   1.408       .  A
C444       C1371   1.413       .  A
C445        C446   1.401       .  A
C445        H449   1.083       .  S
C446       C1369   1.412       .  A
C446        O450   1.371       .  S
O448        H452   0.993       .  S
O450        H451   0.992       .  S
C453        C454   1.407   1_455  A
C453        C458   1.407       .  A
C454       C1383   1.392       .  A
C454        H459   1.084       .  S
C455        C456   1.406       .  A
C455       C1382   1.392       .  A
C455        O460   1.371       .  S
C456        C457   1.409       .  A
C457       C1386   1.395       .  A
C457        H461   1.084       .  S
C458       C1385   1.395       .  A
C458        O462   1.372       .  S
O460        H464   0.992       .  S
O462        H463   0.992       .  S
Fe465       O481   2.054       .  S
Fe465       O471   2.131       .  S
Fe465       O478   2.150       .  S
Fe465       O470   2.044       .  S
Fe465       O476   1.922       .  S
Fe466       O469   2.018       .  S
Fe466       O473   2.084       .  S
Fe466       O477   2.020       .  S
Fe466       O482   2.098       .  S
Fe466       O476   1.915       .  S
Fe467       O485   2.108       .  S
Fe467       O472   2.040       .  S
Fe467       O479   2.018       .  S
Fe467       O468   2.103       .  S
Fe467       O476   1.942       .  S
O468        C475   1.277       .  A
O469        C483   1.255       .  A
O470        C475   1.269       .  A
O471        C474   1.285       .  A
O472        C484   1.269       .  A
O473        C486   1.270       .  A
C474        O479   1.264       .  A
C474        C872   1.474       .  S
C475        C893   1.486       .  S
O477        C480   1.265       .  A
O478        C480   1.291       .  A
C480        C860   1.501       .  S
O481        C486   1.265       .  A
O482        C484   1.278       .  A
C483        O485   1.273       .  A
C483        C917   1.471       .  S
C484        C881   1.484       .  S
C486        C905   1.492       .  S
Fe487       O503   2.055       .  S
Fe487       O493   2.129       .  S
Fe487       O500   2.138       .  S
Fe487       O492   2.047       .  S
Fe487       O498   1.923       .  S
Fe488       O491   2.015       .  S
Fe488       O495   2.087       .  S
Fe488       O499   2.014       .  S
Fe488       O498   1.921       .  S
Fe489       O507   2.108       .  S
Fe489       O494   2.040       .  S
Fe489       O501   2.021       .  S
Fe489       O490   2.099       .  S
Fe489       O498   1.935       .  S
O490        C497   1.276       .  A
O491        C505   1.255       .  A
O492        C497   1.268       .  A
O493        C496   1.284       .  A
O495        C508   1.271       .  A
C496        O501   1.265       .  A
C496        C821   1.477       .  S
C497        C896   1.483       .  S
O499        C502   1.264       .  A
O500        C502   1.288       .  A
C502        C809   1.490       .  S
O503        C508   1.266       .  A
O504        C506   1.279       .  A
C505        O507   1.274       .  A
C505        C845   1.473       .  S
C506        C833   1.485       .  S
C508        C908   1.493       .  S
Fe509       O525   2.144       .  S
Fe509       O515   2.043       .  S
Fe509       O522   2.052       .  S
Fe509       O514   2.133       .  S
Fe509       O520   1.920       .  S
Fe510       O513   2.116       .  S
Fe510       O517   2.017       .  S
Fe510       O521   2.097       .  S
Fe510       O526   2.013       .  S
Fe510       O520   1.918       .  S
Fe511       O529   2.037       .  S
Fe511       O516   2.113       .  S
Fe511       O523   2.111       .  S
Fe511       O512   2.015       .  S
Fe511       O520   1.931       .  S
O512        C519   1.264       .  A
O513        C527   1.281       .  A
O514        C519   1.284       .  A
O515        C518   1.269       .  A
O516        C528   1.277       .  A
O517        C530   1.265       .  A
C518        O523   1.279       .  A
C518        C788   1.491       .  S
C519        C836   1.483       .  S
O521        C524   1.274       .  A
O522        C524   1.266       .  A
C524        C797   1.493       .  S
O525        C530   1.289       .  A
O526        C528   1.255       .  A
C527        O529   1.266       .  A
C527        C824   1.490       .  S
C528        C920   1.470       .  S
C530        C773   1.492       .  S
Fe531       O547   2.137       .  S
Fe531       O537   2.051       .  S
Fe531       O544   2.058       .  S
Fe531       O536   2.121       .  S
Fe531       O542   1.923       .  S
Fe532       O539   2.023       .  S
Fe532       O543   2.090       .  S
Fe532       O548   2.020       .  S
Fe532       O542   1.921       .  S
Fe533       O551   2.040       .  S
Fe533       O538   2.104       .  S
Fe533       O545   2.101       .  S
Fe533       O534   2.016       .  S
Fe533       O542   1.940       .  S
O534        C541   1.266       .  A
O535        C549   1.281   1_554  A
O536        C541   1.283       .  A
O537        C540   1.270       .  A
O538        C550   1.272       .  A
O539        C552   1.266       .  A
C540        O545   1.275       .  A
C540        C785   1.492       .  S
C541        C884   1.471       .  S
O543        C546   1.273       .  A
O544        C546   1.265       .  A
C546        C800   1.497       .  S
O547        C552   1.288       .  A
O548        C550   1.255       .  A
C549        C869   1.488       .  S
C550        C848   1.473       .  S
C552        C761   1.497       .  S
Fe553       O569   2.141       .  S
Fe553       O559   2.046       .  S
Fe553       O566   2.053       .  S
Fe553       O558   2.130       .  S
Fe553       O564   1.923       .  S
Fe554       O561   2.014       .  S
Fe554       O565   2.085       .  S
Fe554       O570   2.020       .  S
Fe554       O564   1.921       .  S
Fe555       O573   2.047       .  S
Fe555       O560   2.110       .  S
Fe555       O567   2.112       .  S
Fe555       O556   2.018       .  S
Fe555       O564   1.937       .  S
O556        C563   1.264       .  A
O557        C571   1.278       .  A
O558        C563   1.284       .  A
O559        C562   1.268       .  A
O560        C572   1.276       .  A
O561        C574   1.264       .  A
C562        O567   1.279       .  A
C562        C749   1.496       .  S
C563        C725   1.476       .  S
O565        C568   1.270       .  A
O566        C568   1.265       .  A
C568        C740   1.487       .  S
O569        C574   1.289       .  A
O570        C572   1.256       .  A
C571        C713   1.488       .  S
C572        C704   1.466       .  S
C574        C812   1.491       .  S
Fe575       O591   2.144       .  S
Fe575       O581   2.051       .  S
Fe575       O588   2.049       .  S
Fe575       O580   2.136       .  S
Fe575       O586   1.924       .  S
Fe576       O579   2.115       .  S
Fe576       O583   2.027       .  S
Fe576       O587   2.088       .  S
Fe576       O592   2.026       .  S
Fe576       O586   1.924       .  S
Fe577       O595   2.036       .  S
Fe577       O582   2.113       .  S
Fe577       O589   2.107       .  S
Fe577       O578   2.016       .  S
Fe577       O586   1.940       .  S
O578        C585   1.266       .  A
O579        C593   1.282       .  A
O580        C585   1.286       .  A
O581        C584   1.269       .  A
O582        C594   1.274       .  A
O583        C596   1.266       .  A
C584        O589   1.276       .  A
C584        C752   1.496       .  S
C585        C692   1.482       .  S
O587        C590   1.272       .  A
O588        C590   1.264       .  A
C590        C737   1.491       .  S
O591        C596   1.290       .  A
O592        C594   1.255       .  A
C593        O595   1.269       .  A
C593        C677   1.487       .  S
C594        C668   1.471       .  S
C596        C857   1.499       .  S
Fe597       O613   2.041       .  S
Fe597       O603   2.131       .  S
Fe597       O610   2.141       .  S
Fe597       O602   2.044       .  S
Fe597       O608   1.923       .  S
Fe598       O601   2.020       .  S
Fe598       O605   2.096       .  S
Fe598       O609   2.022       .  S
Fe598       O608   1.920       .  S
Fe599       O617   2.109       .  S
Fe599       O604   2.038       .  S
Fe599       O611   2.016       .  S
Fe599       O600   2.111       .  S
Fe599       O608   1.936       .  S
O600        C607   1.278       .  A
O601        C615   1.255       .  A
O602        C607   1.268       .  A
O603        C606   1.285       .  A
O605        C618   1.274       .  A
C606        O611   1.264       .  A
C606        C680   1.480       .  S
C607        C653   1.494       .  S
O609        C612   1.266       .  A
O610        C612   1.288       .  A
C612        C764   1.497       .  S
O613        C618   1.263       .  A
O614        C616   1.282       .  A
C615        O617   1.275       .  A
C615        C701   1.467       .  S
C616        C689   1.490       .  S
C618        C644   1.493       .  S
Fe619       O635   2.049       .  S
Fe619       O625   2.129       .  S
Fe619       O632   2.139       .  S
Fe619       O624   2.045       .  S
Fe619       O630   1.924       .  S
Fe620       O623   2.023       .  S
Fe620       O627   2.093       .  S
Fe620       O631   2.022       .  S
Fe620       O636   2.111       .  S
Fe620       O630   1.920       .  S
Fe621       O639   2.118       .  S
Fe621       O626   2.040       .  S
Fe621       O633   2.019       .  S
Fe621       O622   2.112       .  S
Fe621       O630   1.934       .  S
O622        C629   1.279       .  A
O623        C637   1.256       .  A
O624        C629   1.268       .  A
O625        C628   1.284       .  A
O626        C638   1.268       .  A
O627        C640   1.274       .  A
C628        O633   1.266       .  A
C628        C716   1.477       .  S
C629        C656   1.494       .  S
O631        C634   1.265       .  A
O632        C634   1.288       .  A
C634        C776   1.492       .  S
O635        C640   1.265       .  A
O636        C638   1.282       .  A
C637        O639   1.276       .  A
C637        C665   1.471       .  S
C638        C728   1.488       .  S
C640        C641   1.490       .  S
C641        C642   1.403       .  A
C641        C646   1.415       .  A
C642        C643   1.400       .  A
C642        H647   1.083       .  S
C643        C644   1.417       .  A
C643        O648   1.372       .  S
C644        C645   1.406       .  A
C645        C646   1.403       .  A
C645        H649   1.083       .  S
C646        O650   1.371       .  S
O648        H652   0.992       .  S
O650        H651   0.992       .  S
C653        C654   1.407       .  A
C653        C658   1.413       .  A
C654       C1583   1.398   1_455  A
C654        H659   1.083       .  S
C655       C1582   1.398       .  A
C655        C656   1.413       .  A
C655        O660   1.372       .  S
C656        C657   1.409       .  A
C657       C1586   1.407       .  A
C657        H661   1.083       .  S
C658       C1585   1.407   1_455  A
C658        O662   1.371       .  S
O660       H1592   0.993       .  S
O662       H1591   0.992       .  S
H663       O1590   0.992       .  S
H664       O1588   0.993       .  S
C665        C666   1.402   1_545  A
C665        C670   1.410       .  A
C666        C667   1.398       .  A
C666        H671   1.083       .  S
C667        C668   1.411       .  A
C667        O672   1.373       .  S
C668        C669   1.403   1_565  A
C669        C670   1.398       .  A
C669        H673   1.084       .  S
C670        O674   1.373       .  S
O672        H676   0.992       .  S
O674        H675   0.992       .  S
C677        C678   1.412   1_565  A
C677        C682   1.410       .  A
C678        C679   1.403       .  A
C678        H683   1.083       .  S
C679        C680   1.405       .  A
C679        O684   1.371       .  S
C680        C681   1.407   1_545  A
C681        C682   1.396       .  A
C681        H685   1.084       .  S
C682        O686   1.372       .  S
O684        H688   0.992       .  S
O686        H687   0.992       .  S
C689        C690   1.414   1_545  A
C689        C694   1.410       .  A
C690        C691   1.406       .  A
C690        H695   1.083       .  S
C691        C692   1.406       .  A
C691        O696   1.371       .  S
C692        C693   1.407   1_565  A
C693        C694   1.395       .  A
C693        H697   1.084       .  S
C694        O698   1.372       .  S
O696        H700   0.992       .  S
O698        H699   0.991       .  S
C701        C702   1.402   1_546  A
C701        C706   1.411       .  A
C702        H707   1.084       .  S
C703        C704   1.410       .  A
C703        O708   1.373       .  S
C704        C705   1.401   1_565  A
C705        H709   1.084       .  S
C706        O710   1.372       .  S
C713        C714   1.412   1_565  A
C713        C718   1.413       .  A
C714        C715   1.405       .  A
C714        H719   1.083       .  S
C715        C716   1.407       .  A
C715        O720   1.372       .  S
C716        C717   1.403       .  A
C717        C718   1.394   1_545  A
C717        H721   1.084       .  S
C718        O722   1.373       .  S
O720        H724   0.992       .  S
O722        H723   0.991       .  S
C725        C726   1.402       .  A
C725        C730   1.409       .  A
C726        C727   1.405   1_565  A
C726        H731   1.084       .  S
C727        C728   1.418       .  A
C727        O732   1.371       .  S
C728        C729   1.405       .  A
C729        C730   1.395   1_545  A
C729        H733   1.083       .  S
C730        O734   1.373       .  S
O732        H736   0.992       .  S
O734        H735   0.992   1_565  S
C737        C738   1.406       .  A
C737        C742   1.416       .  A
C738        C739   1.401       .  A
C738        H743   1.083       .  S
C739        C740   1.412       .  A
C739        O744   1.371       .  S
C740        C741   1.405       .  A
C741        C742   1.400       .  A
C741        H745   1.084       .  S
C742        O746   1.372       .  S
O744        H748   0.992       .  S
O746        H747   0.992       .  S
C749        C750   1.409       .  A
C749        C754   1.415       .  A
C750       C1679   1.408       .  A
C750        H755   1.083       .  S
C751       C1678   1.408   1_455  A
C751        C752   1.414       .  A
C751        O756   1.371       .  S
C752        C753   1.406       .  A
C753       C1682   1.399   1_455  A
C753        H757   1.083       .  S
C754       C1681   1.399       .  A
C754        O758   1.372       .  S
O756       H1688   0.992       .  S
O758       H1687   0.993       .  S
H759       O1686   0.993       .  S
H760       O1684   0.992       .  S
C761        C766   1.406       .  A
C762        C763   1.404       .  A
C762        H767   1.083       .  S
C763        C764   1.407       .  A
C763        O768   1.371       .  S
C765        C766   1.402       .  A
C765        H769   1.083       .  S
C766        O770   1.371       .  S
O768        H772   0.992       .  S
O770        H771   0.992       .  S
C773        C774   1.414       .  A
C773        C778   1.406       .  A
C774        C775   1.401       .  A
C774        H779   1.083       .  S
C775        C776   1.406       .  A
C775        O780   1.371       .  S
C776        C777   1.414       .  A
C777        C778   1.404       .  A
C777        H781   1.083       .  S
C778        O782   1.371       .  S
O780        H784   0.992       .  S
O782        H783   0.992       .  S
C785        C786   1.405       .  A
C785        C790   1.415       .  A
C786        C787   1.396       .  A
C786        H791   1.083       .  S
C787        C788   1.413       .  A
C787        O792   1.372       .  S
C788        C789   1.408       .  A
C789        C790   1.407       .  A
C789        H793   1.083       .  S
C790        O794   1.371       .  S
O792        H796   0.993       .  S
O794        H795   0.991       .  S
C797       C1726   1.405       .  A
C797        C802   1.414       .  A
C798       C1725   1.405   1_455  A
C798        C799   1.404       .  A
C798        H803   1.084       .  S
C799        C800   1.417       .  A
C799        O804   1.371       .  S
C800       C1729   1.406       .  A
C801       C1728   1.406       .  A
C801        C802   1.402       .  A
C801        H805   1.083       .  S
C802        O806   1.371       .  S
O804        H808   0.992       .  S
O806        H807   0.992       .  S
C809        C810   1.399       .  A
C810        C811   1.402       .  A
C810        H815   1.083       .  S
C811        O816   1.372       .  S
C812        C813   1.399       .  A
C813        C814   1.401       .  A
C813        H817   1.083       .  S
C814        O818   1.373       .  S
O816        H820   0.992       .  S
O818        H819   0.992       .  S
C821        C822   1.401       .  A
C821        C826   1.410       .  A
C822        C823   1.405       .  A
C822        H827   1.084       .  S
C823        C824   1.418       .  A
C823        O828   1.372       .  S
C824        C825   1.405       .  A
C825        C826   1.397       .  A
C825        H829   1.083       .  S
C826        O830   1.373       .  S
O828        H832   0.992       .  S
O830        H831   0.992       .  S
C833        C834   1.411       .  A
C833        C838   1.409       .  A
C834        C835   1.404       .  A
C834        H839   1.083       .  S
C835        C836   1.407       .  A
C835        O840   1.371       .  S
C836        C837   1.409       .  A
C837        C838   1.395       .  A
C837        H841   1.084       .  S
C838        O842   1.372       .  S
O840        H844   0.992       .  S
O842        H843   0.993       .  S
C845        C850   1.407   1_556  A
C846       C1775   1.393       .  A
C846        H851   1.083       .  S
C847       C1774   1.393       .  A
C847        C848   1.406       .  A
C847        O852   1.372       .  S
C849       C1778   1.395       .  A
C849        H853   1.084       .  S
C850       C1777   1.395       .  A
C850        O854   1.372       .  S
O852        H856   0.992       .  S
O854        H855   0.992       .  S
C857        C858   1.400       .  A
C857        C862   1.423       .  A
C858        C859   1.404       .  A
C858        H863   1.083       .  S
C859        C860   1.424       .  A
C859        O864   1.372       .  S
C860        C861   1.402       .  A
C861        C862   1.405       .  A
C861        H865   1.083       .  S
C862        O866   1.372       .  S
O864        H868   0.992       .  S
O866        H867   0.992       .  S
C869        C870   1.412       .  A
C869        C874   1.413       .  A
C870        C871   1.403       .  A
C870        H875   1.083       .  S
C871        C872   1.405       .  A
C871        O876   1.372       .  S
C872        C873   1.404       .  A
C873        C874   1.396       .  A
C873        H877   1.084       .  S
C874        O878   1.372       .  S
O876        H880   0.992       .  S
O878        H879   0.992       .  S
C881        C882   1.411       .  A
C881        C886   1.413       .  A
C882        C883   1.403       .  A
C882        H887   1.083       .  S
C883        C884   1.405       .  A
C883        O888   1.372       .  S
C884        C885   1.402       .  A
C885        C886   1.391       .  A
C885        H889   1.084       .  S
C886        O890   1.372       .  S
O888        H892   0.992       .  S
O890        H891   0.992       .  S
C893        C894   1.407       .  A
C893        C898   1.411       .  A
C894        C895   1.397       .  A
C894        H899   1.084       .  S
C895        C896   1.409       .  A
C895        O900   1.372       .  S
C896        C897   1.407       .  A
C897        C898   1.403       .  A
C897        H901   1.084       .  S
C898        O902   1.371       .  S
O900        H904   0.993       .  S
O902        H903   0.991       .  S
C905        C906   1.408       .  A
C905       C1838   1.412       .  A
C906        C907   1.403       .  A
C906        H911   1.083       .  S
C907       C1836   1.413   1_455  A
C907        O912   1.372       .  S
C908       C1835   1.413       .  A
C908        C909   1.408       .  A
C909        C910   1.401       .  A
C909        H913   1.083       .  S
C910       C1833   1.412       .  A
C910        O914   1.371       .  S
O912        H916   0.993       .  S
O914        H915   0.992       .  S
C917        C918   1.407   1_455  A
C917        C922   1.407       .  A
C918       C1847   1.392       .  A
C918        H923   1.084       .  S
C919       C1846   1.392       .  A
C919        C920   1.406       .  A
C919        O924   1.371       .  S
C920        C921   1.409       .  A
C921       C1850   1.395       .  A
C921        H925   1.084       .  S
C922       C1849   1.395       .  A
C922        O926   1.372       .  S
O924        H928   0.992       .  S
O926        H927   0.992       .  S
Fe929       O945   2.054       .  S
Fe929       O935   2.131       .  S
Fe929       O942   2.150       .  S
Fe929       O934   2.044       .  S
Fe929       O940   1.922       .  S
Fe930       O933   2.018       .  S
Fe930       O937   2.084       .  S
Fe930       O941   2.020       .  S
Fe930       O946   2.098       .  S
Fe930       O940   1.915       .  S
Fe931       O949   2.108       .  S
Fe931       O936   2.040       .  S
Fe931       O943   2.018       .  S
Fe931       O932   2.103       .  S
Fe931       O940   1.942       .  S
O932        C939   1.277       .  A
O933        C947   1.255       .  A
O934        C939   1.269       .  A
O935        C938   1.285       .  A
O936        C948   1.269       .  A
O937        C950   1.270       .  A
C938        O943   1.264       .  A
C938       C1336   1.474       .  S
C939       C1357   1.486       .  S
O941        C944   1.265       .  A
O942        C944   1.291       .  A
C944       C1324   1.501       .  S
O945        C950   1.265       .  A
O946        C948   1.278       .  A
C947        O949   1.273       .  A
C947       C1381   1.471       .  S
C948       C1345   1.484       .  S
C950       C1369   1.492       .  S
Fe951       O967   2.055       .  S
Fe951       O957   2.129       .  S
Fe951       O964   2.138       .  S
Fe951       O956   2.047       .  S
Fe951       O962   1.923       .  S
Fe952       O955   2.015       .  S
Fe952       O959   2.087       .  S
Fe952       O963   2.014       .  S
Fe952      O1432   2.107       .  S
Fe952       O962   1.921       .  S
Fe953       O971   2.108       .  S
Fe953       O958   2.040       .  S
Fe953       O965   2.021       .  S
Fe953       O954   2.099       .  S
Fe953       O962   1.935       .  S
O954        C961   1.276       .  A
O955        C969   1.255       .  A
O956        C961   1.268       .  A
O957        C960   1.284       .  A
O958       C1434   1.268       .  A
O959        C972   1.271       .  A
C960        O965   1.265       .  A
C960       C1285   1.477       .  S
C961       C1360   1.483       .  S
O963        C966   1.264       .  A
O964        C966   1.288       .  A
C966       C1273   1.490       .  S
O967        C972   1.266       .  A
O968      Fe1416   2.107   1_554  S
O968        C970   1.279       .  A
C969        O971   1.274       .  A
C969       C1309   1.473       .  S
C970       O1422   1.268   1_554  A
C970       C1297   1.485       .  S
C972       C1372   1.493       .  S
Fe973       O989   2.144       .  S
Fe973       O979   2.043       .  S
Fe973       O986   2.052       .  S
Fe973       O978   2.133       .  S
Fe973       O984   1.920       .  S
Fe974       O977   2.116       .  S
Fe974       O981   2.017       .  S
Fe974       O985   2.097       .  S
Fe974       O990   2.013       .  S
Fe974       O984   1.918       .  S
Fe975       O993   2.037       .  S
Fe975       O980   2.113       .  S
Fe975       O987   2.111       .  S
Fe975       O976   2.015       .  S
Fe975       O984   1.931       .  S
O976        C983   1.264       .  A
O977        C991   1.281       .  A
O978        C983   1.284       .  A
O979        C982   1.269       .  A
O980        C992   1.277       .  A
O981        C994   1.265       .  A
C982        O987   1.279       .  A
C982       C1252   1.491       .  S
C983       C1300   1.483       .  S
O985        C988   1.274       .  A
O986        C988   1.266       .  A
C988       C1261   1.493       .  S
O989        C994   1.289       .  A
O990        C992   1.255       .  A
C991        O993   1.266       .  A
C991       C1288   1.490       .  S
C992       C1384   1.470       .  S
C994       C1237   1.492       .  S
Fe995      O1011   2.137       .  S
Fe995      O1001   2.051       .  S
Fe995      O1008   2.058       .  S
Fe995      O1000   2.121       .  S
Fe995      O1006   1.923       .  S
Fe996      O1463   2.111       .  S
Fe996      O1003   2.023       .  S
Fe996      O1007   2.090       .  S
Fe996      O1012   2.020       .  S
Fe996      O1006   1.921       .  S
Fe997      O1015   2.040       .  S
Fe997      O1002   2.104       .  S
Fe997      O1009   2.101       .  S
Fe997       O998   2.016       .  S
Fe997      O1006   1.940       .  S
O998       C1005   1.266       .  A
O999      Fe1460   2.111       .  S
O999       C1013   1.281       .  A
O1000      C1005   1.283       .  A
O1001      C1004   1.270       .  A
O1002      C1014   1.272       .  A
O1003      C1016   1.266       .  A
C1004      O1009   1.275       .  A
C1004      C1249   1.492       .  S
C1005      C1348   1.471       .  S
O1007      C1010   1.273       .  A
O1008      C1010   1.265       .  A
C1010      C1264   1.497       .  S
O1011      C1016   1.288       .  A
O1012      C1014   1.255       .  A
C1013      O1479   1.270       .  A
C1013      C1333   1.488       .  S
C1014      C1312   1.473       .  S
O1015      C1477   1.270   1_554  A
C1016      C1225   1.497       .  S
Fe1017     O1033   2.141       .  S
Fe1017     O1023   2.046       .  S
Fe1017     O1030   2.053       .  S
Fe1017     O1022   2.130       .  S
Fe1017     O1028   1.923       .  S
Fe1018     O1485   2.099   1_554  S
Fe1018     O1025   2.014       .  S
Fe1018     O1029   2.085       .  S
Fe1018     O1034   2.020       .  S
Fe1018     O1028   1.921       .  S
Fe1019     O1037   2.047       .  S
Fe1019     O1024   2.110       .  S
Fe1019     O1031   2.112       .  S
Fe1019     O1020   2.018       .  S
Fe1019     O1028   1.937       .  S
O1020      C1027   1.264       .  A
O1021     Fe1482   2.099       .  S
O1021      C1035   1.278       .  A
O1022      C1027   1.284       .  A
O1023      C1026   1.268       .  A
O1024      C1036   1.276       .  A
O1025      C1038   1.264       .  A
C1026      O1031   1.279       .  A
C1026      C1213   1.496       .  S
C1027      C1189   1.476       .  S
O1029      C1032   1.270       .  A
O1030      C1032   1.265       .  A
C1032      C1204   1.487       .  S
O1033      C1038   1.289       .  A
O1034      C1036   1.256       .  A
C1035      O1501   1.270       .  A
C1035      C1177   1.488       .  S
C1036      C1168   1.466       .  S
O1037      C1499   1.270   1_554  A
C1038      C1276   1.491       .  S
Fe1039     O1055   2.144       .  S
Fe1039     O1045   2.051       .  S
Fe1039     O1052   2.049       .  S
Fe1039     O1044   2.136       .  S
Fe1039     O1050   1.924       .  S
Fe1040     O1043   2.115       .  S
Fe1040     O1047   2.027       .  S
Fe1040     O1051   2.088       .  S
Fe1040     O1056   2.026       .  S
Fe1040     O1050   1.924       .  S
Fe1041     O1059   2.036       .  S
Fe1041     O1046   2.113       .  S
Fe1041     O1053   2.107       .  S
Fe1041     O1042   2.016       .  S
Fe1041     O1050   1.940       .  S
O1042      C1049   1.266       .  A
O1043      C1057   1.282       .  A
O1044      C1049   1.286       .  A
O1045      C1048   1.269       .  A
O1046      C1058   1.274       .  A
O1047      C1060   1.266       .  A
C1048      O1053   1.276       .  A
C1048      C1216   1.496       .  S
C1049      C1156   1.482       .  S
O1051      C1054   1.272       .  A
O1052      C1054   1.264       .  A
C1054      C1201   1.491       .  S
O1055      C1060   1.290       .  A
O1056      C1058   1.255       .  A
C1057      O1059   1.269       .  A
C1057      C1141   1.487       .  S
C1058      C1132   1.471       .  S
C1060      C1321   1.499       .  S
Fe1061     O1077   2.041       .  S
Fe1061     O1067   2.131       .  S
Fe1061     O1074   2.141       .  S
Fe1061     O1066   2.044       .  S
Fe1061     O1072   1.923       .  S
Fe1062     O1065   2.020       .  S
Fe1062     O1069   2.096       .  S
Fe1062     O1073   2.022       .  S
Fe1062     O1542   2.117       .  S
Fe1062     O1072   1.920       .  S
Fe1063     O1081   2.109       .  S
Fe1063     O1068   2.038       .  S
Fe1063     O1075   2.016       .  S
Fe1063     O1064   2.111       .  S
Fe1063     O1072   1.936       .  S
O1064      C1071   1.278       .  A
O1065      C1079   1.255       .  A
O1066      C1071   1.268       .  A
O1067      C1070   1.285       .  A
O1068      C1544   1.269       .  A
O1069      C1082   1.274       .  A
C1070      O1075   1.264       .  A
C1070      C1144   1.480       .  S
C1071      C1117   1.494       .  S
O1073      C1076   1.266       .  A
O1074      C1076   1.288       .  A
C1076      C1228   1.497       .  S
O1077      C1082   1.263       .  A
O1078     Fe1526   2.117       .  S
O1078      C1080   1.282   1_556  A
C1079      O1081   1.275       .  A
C1079      C1165   1.467       .  S
C1080      O1532   1.269   1_554  A
C1080      C1153   1.490       .  S
C1082      C1108   1.493       .  S
Fe1083     O1099   2.049       .  S
Fe1083     O1089   2.129       .  S
Fe1083     O1096   2.139       .  S
Fe1083     O1088   2.045       .  S
Fe1083     O1094   1.924       .  S
Fe1084     O1087   2.023       .  S
Fe1084     O1091   2.093       .  S
Fe1084     O1095   2.022       .  S
Fe1084     O1100   2.111       .  S
Fe1084     O1094   1.920       .  S
Fe1085     O1103   2.118       .  S
Fe1085     O1090   2.040       .  S
Fe1085     O1097   2.019       .  S
Fe1085     O1086   2.112       .  S
Fe1085     O1094   1.934       .  S
O1086      C1093   1.279       .  A
O1087      C1101   1.256       .  A
O1088      C1093   1.268       .  A
O1089      C1092   1.284       .  A
O1090      C1102   1.268       .  A
O1091      C1104   1.274       .  A
C1092      O1097   1.266       .  A
C1092      C1180   1.477       .  S
C1093      C1120   1.494       .  S
O1095      C1098   1.265       .  A
O1096      C1098   1.288       .  A
C1098      C1240   1.492       .  S
O1099      C1104   1.265       .  A
O1100      C1102   1.282       .  A
C1101      O1103   1.276       .  A
C1101      C1129   1.471       .  S
C1102      C1192   1.488       .  S
C1104      C1105   1.490       .  S
C1105      C1106   1.403       .  A
C1105      C1110   1.415       .  A
C1106      C1107   1.400       .  A
C1106      H1111   1.083       .  S
C1107      C1108   1.417       .  A
C1107      O1112   1.372       .  S
C1108      C1109   1.406       .  A
C1109      C1110   1.403       .  A
C1109      H1113   1.083       .  S
C1110      O1114   1.371       .  S
O1112      H1116   0.992       .  S
O1114      H1115   0.992       .  S
C1117      C1118   1.407       .  A
C1117      C1122   1.413       .  A
C1118      H1123   1.083       .  S
C1119      C1120   1.413       .  A
C1119      O1124   1.372       .  S
C1120      C1121   1.409       .  A
C1121      H1125   1.083       .  S
C1122      O1126   1.371       .  S
C1129      C1130   1.402   1_545  A
C1129      C1134   1.410       .  A
C1130      C1131   1.398       .  A
C1130      H1135   1.083       .  S
C1131      C1132   1.411       .  A
C1131      O1136   1.373       .  S
C1132      C1133   1.403   1_565  A
C1133      C1134   1.398       .  A
C1133      H1137   1.084       .  S
C1134      O1138   1.373       .  S
O1136      H1140   0.992       .  S
O1138      H1139   0.992       .  S
C1141      C1142   1.412   1_565  A
C1141      C1146   1.410       .  A
C1142      C1143   1.403       .  A
C1142      H1147   1.083       .  S
C1143      C1144   1.405       .  A
C1143      O1148   1.371       .  S
C1144      C1145   1.407   1_545  A
C1145      C1146   1.396       .  A
C1145      H1149   1.084       .  S
C1146      O1150   1.372       .  S
O1148      H1152   0.992       .  S
O1150      H1151   0.992       .  S
C1153      C1154   1.414   1_545  A
C1153      C1158   1.410       .  A
C1154      C1155   1.406       .  A
C1154      H1159   1.083       .  S
C1155      C1156   1.406       .  A
C1155      O1160   1.371       .  S
C1156      C1157   1.407   1_565  A
C1157      C1158   1.395       .  A
C1157      H1161   1.084       .  S
C1158      O1162   1.372       .  S
O1160      H1164   0.992       .  S
O1162      H1163   0.991       .  S
C1165      C1166   1.402   1_545  A
C1165      C1170   1.411       .  A
C1166      C1631   1.396       .  A
C1166      H1171   1.084       .  S
C1167      C1630   1.396       .  A
C1167      C1168   1.410       .  A
C1167      O1172   1.373       .  S
C1168      C1169   1.401   1_564  A
C1169      C1634   1.395       .  A
C1169      H1173   1.084       .  S
C1170      C1633   1.395       .  A
C1170      O1174   1.372       .  S
O1172      H1640   0.992       .  S
O1174      H1639   0.992       .  S
H1175      O1638   0.992       .  S
H1176      O1636   0.992       .  S
C1177      C1178   1.412   1_565  A
C1177      C1182   1.413       .  A
C1178      C1179   1.405       .  A
C1178      H1183   1.083       .  S
C1179      C1180   1.407       .  A
C1179      O1184   1.372       .  S
C1180      C1181   1.403       .  A
C1181      C1182   1.394   1_545  A
C1181      H1185   1.084       .  S
C1182      O1186   1.373       .  S
O1184      H1188   0.992       .  S
O1186      H1187   0.991       .  S
C1189      C1190   1.402       .  A
C1189      C1194   1.409       .  A
C1190      C1191   1.405   1_565  A
C1190      H1195   1.084       .  S
C1191      C1192   1.418       .  A
C1191      O1196   1.371       .  S
C1192      C1193   1.405       .  A
C1193      C1194   1.395   1_545  A
C1193      H1197   1.083       .  S
C1194      O1198   1.373       .  S
O1196      H1200   0.992       .  S
O1198      H1199   0.992   1_565  S
C1201      C1202   1.406       .  A
C1201      C1206   1.416       .  A
C1202      C1203   1.401       .  A
C1202      H1207   1.083       .  S
C1203      C1204   1.412       .  A
C1203      O1208   1.371       .  S
C1204      C1205   1.405       .  A
C1205      C1206   1.400       .  A
C1205      H1209   1.084       .  S
C1206      O1210   1.372       .  S
O1208      H1212   0.992       .  S
O1210      H1211   0.992       .  S
C1213      C1214   1.409       .  A
C1213      C1218   1.415       .  A
C1214      H1219   1.083       .  S
C1215      C1216   1.414       .  A
C1215      O1220   1.371       .  S
C1216      C1217   1.406       .  A
C1217      H1221   1.083       .  S
C1218      O1222   1.372       .  S
C1225      C1690   1.416   1_554  A
C1225      C1230   1.406       .  A
C1226      C1689   1.416       .  A
C1226      C1227   1.404       .  A
C1226      H1231   1.083       .  S
C1227      C1228   1.407       .  A
C1227      O1232   1.371       .  S
C1228      C1693   1.415       .  A
C1229      C1692   1.415   1_554  A
C1229      C1230   1.402       .  A
C1229      H1233   1.083       .  S
C1230      O1234   1.371       .  S
O1232      H1236   0.992       .  S
O1234      H1235   0.992       .  S
C1237      C1238   1.414       .  A
C1237      C1242   1.406       .  A
C1238      C1239   1.401       .  A
C1238      H1243   1.083       .  S
C1239      C1240   1.406       .  A
C1239      O1244   1.371       .  S
C1240      C1241   1.414       .  A
C1241      C1242   1.404       .  A
C1241      H1245   1.083       .  S
C1242      O1246   1.371       .  S
O1244      H1248   0.992       .  S
O1246      H1247   0.992       .  S
C1249      C1250   1.405       .  A
C1249      C1254   1.415       .  A
C1250      C1251   1.396       .  A
C1250      H1255   1.083       .  S
C1251      C1252   1.413       .  A
C1251      O1256   1.372       .  S
C1252      C1253   1.408       .  A
C1253      C1254   1.407       .  A
C1253      H1257   1.083       .  S
C1254      O1258   1.371       .  S
O1256      H1260   0.993       .  S
O1258      H1259   0.991       .  S
C1261      C1266   1.414       .  A
C1262      C1263   1.404       .  A
C1262      H1267   1.084       .  S
C1263      C1264   1.417       .  A
C1263      O1268   1.371       .  S
C1265      C1266   1.402   1_455  A
C1265      H1269   1.083   1_455  S
C1266      O1270   1.371       .  S
O1268      H1272   0.992       .  S
O1270      H1271   0.992       .  S
C1273      C1274   1.399       .  A
C1273      C1742   1.420       .  A
C1274      C1275   1.402       .  A
C1274      H1279   1.083       .  S
C1275      C1740   1.422       .  A
C1275      O1280   1.372       .  S
C1276      C1739   1.422   1_554  A
C1276      C1277   1.399       .  A
C1277      C1278   1.401       .  A
C1277      H1281   1.083       .  S
C1278      C1737   1.420   1_554  A
C1278      O1282   1.373       .  S
O1280      H1284   0.992       .  S
O1282      H1283   0.992       .  S
C1285      C1286   1.401       .  A
C1285      C1290   1.410       .  A
C1286      C1287   1.405       .  A
C1286      H1291   1.084       .  S
C1287      C1288   1.418       .  A
C1287      O1292   1.372       .  S
C1288      C1289   1.405       .  A
C1289      C1290   1.397       .  A
C1289      H1293   1.083       .  S
C1290      O1294   1.373       .  S
O1292      H1296   0.992       .  S
O1294      H1295   0.992       .  S
C1297      C1298   1.411       .  A
C1297      C1302   1.409       .  A
C1298      C1299   1.404       .  A
C1298      H1303   1.083       .  S
C1299      C1300   1.407       .  A
C1299      O1304   1.371       .  S
C1300      C1301   1.409       .  A
C1301      C1302   1.395       .  A
C1301      H1305   1.084       .  S
C1302      O1306   1.372       .  S
O1304      H1308   0.992       .  S
O1306      H1307   0.993       .  S
C1309      C1774   1.409   1_655  A
C1309      C1314   1.407       .  A
C1310      C1773   1.409   1_455  A
C1310      H1315   1.083       .  S
C1311      C1312   1.406       .  A
C1311      O1316   1.372       .  S
C1312      C1777   1.409       .  A
C1313      C1776   1.409       .  A
C1313      H1317   1.084       .  S
C1314      O1318   1.372       .  S
O1316      H1320   0.992       .  S
O1318      H1319   0.992       .  S
C1321      C1322   1.400       .  A
C1321      C1326   1.423       .  A
C1322      C1323   1.404       .  A
C1322      H1327   1.083       .  S
C1323      C1324   1.424       .  A
C1323      O1328   1.372       .  S
C1324      C1325   1.402       .  A
C1325      C1326   1.405       .  A
C1325      H1329   1.083       .  S
C1326      O1330   1.372       .  S
O1328      H1332   0.992       .  S
O1330      H1331   0.992       .  S
C1333      C1334   1.412       .  A
C1333      C1338   1.413       .  A
C1334      C1335   1.403       .  A
C1334      H1339   1.083       .  S
C1335      C1336   1.405       .  A
C1335      O1340   1.372       .  S
C1336      C1337   1.404       .  A
C1337      C1338   1.396       .  A
C1337      H1341   1.084       .  S
C1338      O1342   1.372       .  S
O1340      H1344   0.992       .  S
O1342      H1343   0.991       .  S
C1345      C1346   1.411       .  A
C1345      C1350   1.413       .  A
C1346      C1347   1.403       .  A
C1346      H1351   1.083       .  S
C1347      C1348   1.405       .  A
C1347      O1352   1.372       .  S
C1348      C1349   1.402       .  A
C1349      C1350   1.391       .  A
C1349      H1353   1.084       .  S
C1350      O1354   1.372       .  S
O1352      H1356   0.992       .  S
O1354      H1355   0.992       .  S
C1357      C1358   1.407       .  A
C1357      C1362   1.411       .  A
C1358      C1359   1.397       .  A
C1358      H1363   1.084       .  S
C1359      C1360   1.409       .  A
C1359      O1364   1.372       .  S
C1360      C1361   1.407       .  A
C1361      C1362   1.403       .  A
C1361      H1365   1.084       .  S
C1362      O1366   1.371       .  S
O1364      H1368   0.993       .  S
O1366      H1367   0.991       .  S
C1369      C1370   1.408       .  A
C1370      C1371   1.403       .  A
C1370      H1375   1.083       .  S
C1371      O1376   1.372       .  S
C1372      C1373   1.408       .  A
C1373      C1374   1.401   1_655  A
C1373      H1377   1.083       .  S
C1374      O1378   1.371   1_455  S
O1376      H1380   0.993       .  S
O1378      H1379   0.992       .  S
C1381      C1382   1.407       .  A
C1381      C1386   1.407       .  A
C1382      H1387   1.084       .  S
C1383      C1384   1.406       .  A
C1383      O1388   1.371       .  S
C1384      C1385   1.409   1_655  A
C1385      H1389   1.084       .  S
C1386      O1390   1.372       .  S
O1388      H1392   0.992       .  S
O1390      H1391   0.992       .  S
Fe1393     O1409   2.054       .  S
Fe1393     O1399   2.131       .  S
Fe1393     O1406   2.150       .  S
Fe1393     O1398   2.044       .  S
Fe1393     O1404   1.922       .  S
Fe1394     O1397   2.018       .  S
Fe1394     O1401   2.084       .  S
Fe1394     O1405   2.020       .  S
Fe1394     O1410   2.098       .  S
Fe1394     O1404   1.915       .  S
Fe1395     O1413   2.108       .  S
Fe1395     O1400   2.040       .  S
Fe1395     O1407   2.018       .  S
Fe1395     O1396   2.103       .  S
Fe1395     O1404   1.942       .  S
O1396      C1403   1.277       .  A
O1397      C1411   1.255       .  A
O1398      C1403   1.269       .  A
O1399      C1402   1.285       .  A
O1400      C1412   1.269       .  A
O1401      C1414   1.270       .  A
C1402      O1407   1.264       .  A
C1402      C1800   1.474       .  S
C1403      C1821   1.486       .  S
O1405      C1408   1.265       .  A
O1406      C1408   1.291       .  A
C1408      C1788   1.501       .  S
O1409      C1414   1.265       .  A
O1410      C1412   1.278       .  A
C1411      O1413   1.273       .  A
C1411      C1845   1.471       .  S
C1412      C1809   1.484       .  S
C1414      C1833   1.492       .  S
Fe1415     O1431   2.055       .  S
Fe1415     O1421   2.129       .  S
Fe1415     O1428   2.138       .  S
Fe1415     O1420   2.047       .  S
Fe1415     O1426   1.923       .  S
Fe1416     O1419   2.015       .  S
Fe1416     O1423   2.087       .  S
Fe1416     O1427   2.014       .  S
Fe1416     O1426   1.921       .  S
Fe1417     O1435   2.108       .  S
Fe1417     O1422   2.040       .  S
Fe1417     O1429   2.021       .  S
Fe1417     O1418   2.099       .  S
Fe1417     O1426   1.935       .  S
O1418      C1425   1.276       .  A
O1419      C1433   1.255       .  A
O1420      C1425   1.268       .  A
O1421      C1424   1.284       .  A
O1423      C1436   1.271       .  A
C1424      O1429   1.265       .  A
C1424      C1749   1.477       .  S
C1425      C1824   1.483       .  S
O1427      C1430   1.264       .  A
O1428      C1430   1.288       .  A
C1430      C1737   1.490       .  S
O1431      C1436   1.266       .  A
O1432      C1434   1.279       .  A
C1433      O1435   1.274       .  A
C1433      C1773   1.473       .  S
C1434      C1761   1.485       .  S
C1436      C1836   1.493       .  S
Fe1437     O1453   2.144       .  S
Fe1437     O1443   2.043       .  S
Fe1437     O1450   2.052       .  S
Fe1437     O1442   2.133       .  S
Fe1437     O1448   1.920       .  S
Fe1438     O1441   2.116       .  S
Fe1438     O1445   2.017       .  S
Fe1438     O1449   2.097       .  S
Fe1438     O1454   2.013       .  S
Fe1438     O1448   1.918       .  S
Fe1439     O1457   2.037       .  S
Fe1439     O1444   2.113       .  S
Fe1439     O1451   2.111       .  S
Fe1439     O1440   2.015       .  S
Fe1439     O1448   1.931       .  S
O1440      C1447   1.264       .  A
O1441      C1455   1.281       .  A
O1442      C1447   1.284       .  A
O1443      C1446   1.269       .  A
O1444      C1456   1.277       .  A
O1445      C1458   1.265       .  A
C1446      O1451   1.279       .  A
C1446      C1716   1.491       .  S
C1447      C1764   1.483       .  S
O1449      C1452   1.274       .  A
O1450      C1452   1.266       .  A
C1452      C1725   1.493       .  S
O1453      C1458   1.289       .  A
O1454      C1456   1.255       .  A
C1455      O1457   1.266       .  A
C1455      C1752   1.490       .  S
C1456      C1848   1.470       .  S
C1458      C1701   1.492       .  S
Fe1459     O1475   2.137       .  S
Fe1459     O1465   2.051       .  S
Fe1459     O1472   2.058       .  S
Fe1459     O1464   2.121       .  S
Fe1459     O1470   1.923       .  S
Fe1460     O1467   2.023       .  S
Fe1460     O1471   2.090       .  S
Fe1460     O1476   2.020       .  S
Fe1460     O1470   1.921       .  S
Fe1461     O1479   2.040       .  S
Fe1461     O1466   2.104       .  S
Fe1461     O1473   2.101       .  S
Fe1461     O1462   2.016       .  S
Fe1461     O1470   1.940       .  S
O1462      C1469   1.266       .  A
O1463      C1477   1.281   1_554  A
O1464      C1469   1.283       .  A
O1465      C1468   1.270       .  A
O1466      C1478   1.272       .  A
O1467      C1480   1.266       .  A
C1468      O1473   1.275       .  A
C1468      C1713   1.492       .  S
C1469      C1812   1.471       .  S
O1471      C1474   1.273       .  A
O1472      C1474   1.265       .  A
C1474      C1728   1.497       .  S
O1475      C1480   1.288       .  A
O1476      C1478   1.255       .  A
C1477      C1797   1.488       .  S
C1478      C1776   1.473       .  S
C1480      C1689   1.497       .  S
Fe1481     O1497   2.141       .  S
Fe1481     O1487   2.046       .  S
Fe1481     O1494   2.053       .  S
Fe1481     O1486   2.130       .  S
Fe1481     O1492   1.923       .  S
Fe1482     O1489   2.014       .  S
Fe1482     O1493   2.085       .  S
Fe1482     O1498   2.020       .  S
Fe1482     O1492   1.921       .  S
Fe1483     O1501   2.047       .  S
Fe1483     O1488   2.110       .  S
Fe1483     O1495   2.112       .  S
Fe1483     O1484   2.018       .  S
Fe1483     O1492   1.937       .  S
O1484      C1491   1.264       .  A
O1485      C1499   1.278       .  A
O1486      C1491   1.284       .  A
O1487      C1490   1.268       .  A
O1488      C1500   1.276       .  A
O1489      C1502   1.264       .  A
C1490      O1495   1.279       .  A
C1490      C1677   1.496       .  S
C1491      C1653   1.476       .  S
O1493      C1496   1.270       .  A
O1494      C1496   1.265       .  A
C1496      C1668   1.487       .  S
O1497      C1502   1.289       .  A
O1498      C1500   1.256       .  A
C1499      C1641   1.488       .  S
C1500      C1632   1.466       .  S
C1502      C1740   1.491       .  S
Fe1503     O1519   2.144       .  S
Fe1503     O1509   2.051       .  S
Fe1503     O1516   2.049       .  S
Fe1503     O1508   2.136       .  S
Fe1503     O1514   1.924       .  S
Fe1504     O1507   2.115       .  S
Fe1504     O1511   2.027       .  S
Fe1504     O1515   2.088       .  S
Fe1504     O1520   2.026       .  S
Fe1504     O1514   1.924       .  S
Fe1505     O1523   2.036       .  S
Fe1505     O1510   2.113       .  S
Fe1505     O1517   2.107       .  S
Fe1505     O1506   2.016       .  S
Fe1505     O1514   1.940       .  S
O1506      C1513   1.266       .  A
O1507      C1521   1.282       .  A
O1508      C1513   1.286       .  A
O1509      C1512   1.269       .  A
O1510      C1522   1.274       .  A
O1511      C1524   1.266       .  A
C1512      O1517   1.276       .  A
C1512      C1680   1.496       .  S
C1513      C1620   1.482       .  S
O1515      C1518   1.272       .  A
O1516      C1518   1.264       .  A
C1518      C1665   1.491       .  S
O1519      C1524   1.290       .  A
O1520      C1522   1.255       .  A
C1521      O1523   1.269       .  A
C1521      C1605   1.487       .  S
C1522      C1596   1.471       .  S
C1524      C1785   1.499       .  S
Fe1525     O1541   2.041       .  S
Fe1525     O1531   2.131       .  S
Fe1525     O1538   2.141       .  S
Fe1525     O1530   2.044       .  S
Fe1525     O1536   1.923       .  S
Fe1526     O1529   2.020       .  S
Fe1526     O1533   2.096       .  S
Fe1526     O1537   2.022       .  S
Fe1526     O1536   1.920       .  S
Fe1527     O1545   2.109       .  S
Fe1527     O1532   2.038       .  S
Fe1527     O1539   2.016       .  S
Fe1527     O1528   2.111       .  S
Fe1527     O1536   1.936       .  S
O1528      C1535   1.278       .  A
O1529      C1543   1.255       .  A
O1530      C1535   1.268       .  A
O1531      C1534   1.285       .  A
O1533      C1546   1.274       .  A
C1534      O1539   1.264       .  A
C1534      C1608   1.480       .  S
C1535      C1581   1.494       .  S
O1537      C1540   1.266       .  A
O1538      C1540   1.288       .  A
C1540      C1692   1.497       .  S
O1541      C1546   1.263       .  A
O1542      C1544   1.282       .  A
C1543      O1545   1.275       .  A
C1543      C1629   1.467       .  S
C1544      C1617   1.490       .  S
C1546      C1572   1.493       .  S
Fe1547     O1563   2.049       .  S
Fe1547     O1553   2.129       .  S
Fe1547     O1560   2.139       .  S
Fe1547     O1552   2.045       .  S
Fe1547     O1558   1.924       .  S
Fe1548     O1551   2.023       .  S
Fe1548     O1555   2.093       .  S
Fe1548     O1559   2.022       .  S
Fe1548     O1564   2.111       .  S
Fe1548     O1558   1.920       .  S
Fe1549     O1567   2.118       .  S
Fe1549     O1554   2.040       .  S
Fe1549     O1561   2.019       .  S
Fe1549     O1550   2.112       .  S
Fe1549     O1558   1.934       .  S
O1550      C1557   1.279       .  A
O1551      C1565   1.256       .  A
O1552      C1557   1.268       .  A
O1553      C1556   1.284       .  A
O1554      C1566   1.268       .  A
O1555      C1568   1.274       .  A
C1556      O1561   1.266       .  A
C1556      C1644   1.477       .  S
C1557      C1584   1.494       .  S
O1559      C1562   1.265       .  A
O1560      C1562   1.288       .  A
C1562      C1704   1.492       .  S
O1563      C1568   1.265       .  A
O1564      C1566   1.282       .  A
C1565      O1567   1.276       .  A
C1565      C1593   1.471       .  S
C1566      C1656   1.488       .  S
C1568      C1569   1.490       .  S
C1569      C1570   1.403       .  A
C1569      C1574   1.415       .  A
C1570      C1571   1.400       .  A
C1570      H1575   1.083       .  S
C1571      C1572   1.417       .  A
C1571      O1576   1.372       .  S
C1572      C1573   1.406       .  A
C1573      C1574   1.403       .  A
C1573      H1577   1.083       .  S
C1574      O1578   1.371       .  S
O1576      H1580   0.992       .  S
O1578      H1579   0.992       .  S
C1581      C1582   1.407       .  A
C1581      C1586   1.413       .  A
C1582      H1587   1.083       .  S
C1583      C1584   1.413       .  A
C1583      O1588   1.372       .  S
C1584      C1585   1.409       .  A
C1585      H1589   1.083       .  S
C1586      O1590   1.371       .  S
C1593      C1594   1.402   1_545  A
C1593      C1598   1.410       .  A
C1594      C1595   1.398       .  A
C1594      H1599   1.083       .  S
C1595      C1596   1.411       .  A
C1595      O1600   1.373       .  S
C1596      C1597   1.403   1_565  A
C1597      C1598   1.398       .  A
C1597      H1601   1.084       .  S
C1598      O1602   1.373       .  S
O1600      H1604   0.992       .  S
O1602      H1603   0.992       .  S
C1605      C1606   1.412   1_565  A
C1605      C1610   1.410       .  A
C1606      C1607   1.403       .  A
C1606      H1611   1.083       .  S
C1607      C1608   1.405       .  A
C1607      O1612   1.371       .  S
C1608      C1609   1.407   1_545  A
C1609      C1610   1.396       .  A
C1609      H1613   1.084       .  S
C1610      O1614   1.372       .  S
O1612      H1616   0.992       .  S
O1614      H1615   0.991       .  S
C1617      C1618   1.414   1_545  A
C1617      C1622   1.410       .  A
C1618      C1619   1.406       .  A
C1618      H1623   1.083       .  S
C1619      C1620   1.406       .  A
C1619      O1624   1.371       .  S
C1620      C1621   1.407   1_565  A
C1621      C1622   1.395       .  A
C1621      H1625   1.084       .  S
C1622      O1626   1.372       .  S
O1624      H1628   0.992       .  S
O1626      H1627   0.991       .  S
C1629      C1630   1.402   1_546  A
C1629      C1634   1.411       .  A
C1630      H1635   1.084       .  S
C1631      C1632   1.410       .  A
C1631      O1636   1.373       .  S
C1632      C1633   1.401   1_565  A
C1633      H1637   1.084       .  S
C1634      O1638   1.372       .  S
C1641      C1642   1.412   1_565  A
C1641      C1646   1.413       .  A
C1642      C1643   1.405       .  A
C1642      H1647   1.083       .  S
C1643      C1644   1.407       .  A
C1643      O1648   1.372       .  S
C1644      C1645   1.403       .  A
C1645      C1646   1.394   1_545  A
C1645      H1649   1.084       .  S
C1646      O1650   1.373       .  S
O1648      H1652   0.992       .  S
O1650      H1651   0.991       .  S
C1653      C1654   1.402       .  A
C1653      C1658   1.409       .  A
C1654      C1655   1.405   1_565  A
C1654      H1659   1.084       .  S
C1655      C1656   1.418       .  A
C1655      O1660   1.371       .  S
C1656      C1657   1.405       .  A
C1657      C1658   1.395   1_545  A
C1657      H1661   1.083       .  S
C1658      O1662   1.373       .  S
O1660      H1664   0.992       .  S
O1662      H1663   0.992   1_565  S
C1665      C1666   1.406       .  A
C1665      C1670   1.416       .  A
C1666      C1667   1.401       .  A
C1666      H1671   1.083       .  S
C1667      C1668   1.412       .  A
C1667      O1672   1.371       .  S
C1668      C1669   1.405       .  A
C1669      C1670   1.400       .  A
C1669      H1673   1.084       .  S
C1670      O1674   1.372       .  S
O1672      H1676   0.992       .  S
O1674      H1675   0.992       .  S
C1677      C1678   1.409       .  A
C1677      C1682   1.415       .  A
C1678      H1683   1.083       .  S
C1679      C1680   1.414       .  A
C1679      O1684   1.371       .  S
C1680      C1681   1.406       .  A
C1681      H1685   1.083       .  S
C1682      O1686   1.372       .  S
C1689      C1694   1.406       .  A
C1690      C1691   1.404       .  A
C1690      H1695   1.083       .  S
C1691      C1692   1.407       .  A
C1691      O1696   1.371       .  S
C1693      C1694   1.402       .  A
C1693      H1697   1.083       .  S
C1694      O1698   1.371       .  S
O1696      H1700   0.992       .  S
O1698      H1699   0.992       .  S
C1701      C1702   1.414       .  A
C1701      C1706   1.406       .  A
C1702      C1703   1.401       .  A
C1702      H1707   1.083       .  S
C1703      C1704   1.406       .  A
C1703      O1708   1.371       .  S
C1704      C1705   1.414       .  A
C1705      C1706   1.404       .  A
C1705      H1709   1.083       .  S
C1706      O1710   1.371       .  S
O1708      H1712   0.992       .  S
O1710      H1711   0.992       .  S
C1713      C1714   1.405       .  A
C1713      C1718   1.415       .  A
C1714      C1715   1.396       .  A
C1714      H1719   1.083       .  S
C1715      C1716   1.413       .  A
C1715      O1720   1.372       .  S
C1716      C1717   1.408       .  A
C1717      C1718   1.407       .  A
C1717      H1721   1.083       .  S
C1718      O1722   1.371       .  S
O1720      H1724   0.993       .  S
O1722      H1723   0.991       .  S
C1725      C1730   1.414       .  A
C1726      C1727   1.404       .  A
C1726      H1731   1.084       .  S
C1727      C1728   1.417       .  A
C1727      O1732   1.371       .  S
C1729      C1730   1.402   1_455  A
C1729      H1733   1.083   1_455  S
C1730      O1734   1.371       .  S
O1732      H1736   0.992       .  S
O1734      H1735   0.992       .  S
C1737      C1738   1.399       .  A
C1738      C1739   1.402       .  A
C1738      H1743   1.083       .  S
C1739      O1744   1.372       .  S
C1740      C1741   1.399       .  A
C1741      C1742   1.401       .  A
C1741      H1745   1.083       .  S
C1742      O1746   1.373       .  S
O1744      H1748   0.992       .  S
O1746      H1747   0.992       .  S
C1749      C1750   1.401       .  A
C1749      C1754   1.410       .  A
C1750      C1751   1.405       .  A
C1750      H1755   1.084       .  S
C1751      C1752   1.418       .  A
C1751      O1756   1.372       .  S
C1752      C1753   1.405       .  A
C1753      C1754   1.397       .  A
C1753      H1757   1.083       .  S
C1754      O1758   1.373       .  S
O1756      H1760   0.992       .  S
O1758      H1759   0.992       .  S
C1761      C1762   1.411       .  A
C1761      C1766   1.409       .  A
C1762      C1763   1.404       .  A
C1762      H1767   1.083       .  S
C1763      C1764   1.407       .  A
C1763      O1768   1.371       .  S
C1764      C1765   1.409       .  A
C1765      C1766   1.395       .  A
C1765      H1769   1.084       .  S
C1766      O1770   1.372       .  S
O1768      H1772   0.992       .  S
O1770      H1771   0.993       .  S
C1773      C1778   1.407   1_556  A
C1774      H1779   1.083       .  S
C1775      C1776   1.406       .  A
C1775      O1780   1.372       .  S
C1777      H1781   1.084       .  S
C1778      O1782   1.372       .  S
O1780      H1784   0.992       .  S
O1782      H1783   0.992       .  S
C1785      C1786   1.400       .  A
C1785      C1790   1.423       .  A
C1786      C1787   1.404       .  A
C1786      H1791   1.083       .  S
C1787      C1788   1.424       .  A
C1787      O1792   1.372       .  S
C1788      C1789   1.402       .  A
C1789      C1790   1.405       .  A
C1789      H1793   1.083       .  S
C1790      O1794   1.372       .  S
O1792      H1796   0.992       .  S
O1794      H1795   0.992       .  S
C1797      C1798   1.412       .  A
C1797      C1802   1.413       .  A
C1798      C1799   1.403       .  A
C1798      H1803   1.083       .  S
C1799      C1800   1.405       .  A
C1799      O1804   1.372       .  S
C1800      C1801   1.404       .  A
C1801      C1802   1.396       .  A
C1801      H1805   1.084       .  S
C1802      O1806   1.372       .  S
O1804      H1808   0.992       .  S
O1806      H1807   0.992       .  S
C1809      C1810   1.411       .  A
C1809      C1814   1.413       .  A
C1810      C1811   1.403       .  A
C1810      H1815   1.083       .  S
C1811      C1812   1.405       .  A
C1811      O1816   1.372       .  S
C1812      C1813   1.402       .  A
C1813      C1814   1.391       .  A
C1813      H1817   1.084       .  S
C1814      O1818   1.372       .  S
O1816      H1820   0.992       .  S
O1818      H1819   0.992       .  S
C1821      C1822   1.407       .  A
C1821      C1826   1.411       .  A
C1822      C1823   1.397       .  A
C1822      H1827   1.084       .  S
C1823      C1824   1.409       .  A
C1823      O1828   1.372       .  S
C1824      C1825   1.407       .  A
C1825      C1826   1.403       .  A
C1825      H1829   1.084       .  S
C1826      O1830   1.371       .  S
O1828      H1832   0.993       .  S
O1830      H1831   0.991       .  S
C1833      C1834   1.408       .  A
C1834      C1835   1.403       .  A
C1834      H1839   1.083       .  S
C1835      O1840   1.372       .  S
C1836      C1837   1.408       .  A
C1837      C1838   1.401   1_655  A
C1837      H1841   1.083       .  S
C1838      O1842   1.371   1_455  S
O1840      H1844   0.993       .  S
O1842      H1843   0.992       .  S
C1845      C1846   1.407       .  A
C1845      C1850   1.407       .  A
C1846      H1851   1.084       .  S
C1847      C1848   1.406       .  A
C1847      O1852   1.371       .  S
C1848      C1849   1.409   1_655  A
C1849      H1853   1.084       .  S
C1850      O1854   1.372       .  S
O1852      H1856   0.992       .  S
O1854      H1855   0.992       .  S
