geometry optimzed in LAMMPS
_audit_creation_date              2020-12-01 
_audit_creation_method            'lammps2cif' 
_symmetry_space_group_name_H-M    'P1' 
_symmetry_Int_Tables_number       1 
_symmetry_cell_setting            triclinic 
loop_ 
_symmetry_equiv_pos_as_xyz 
  x,y,z 
_cell_length_a                    35.83112825 
_cell_length_b                    39.953219792683605 
_cell_length_c                    43.47924669995401 
_cell_angle_alpha                 89.9956645814067 
_cell_angle_beta                  94.39914436495948 
_cell_angle_gamma                 89.81946142501951 
loop_ 
_atom_site_label 
_atom_site_type_symbol 
_atom_site_fract_x 
_atom_site_fract_y 
_atom_site_fract_z 
_atom_site_charge 
O1          O  0.86605111  0.27667158  0.31477618    -0.85600
O2          O  0.80381033  0.31264395  0.31299976    -0.82600
C3          C  0.77334942  0.32525970  0.31913121     0.97900
O4          O  0.76255912  0.32393360  0.34638381    -0.82600
O5          O  0.75467052  0.25767090  0.36665572    -0.85300
C6          C  0.76428886  0.22835859  0.37455497     1.02400
O7          O  0.79832369  0.22220309  0.38274606    -0.78000
O8          O  0.83420695  0.23365145  0.32968799    -0.78200
C9          C  0.84878711  0.24950388  0.30861167     1.02400
O10         O  0.89410182  0.31425944  0.36905639    -0.85600
O11         O  0.82939919  0.35607545  0.36161360    -0.82600
C12         C  0.81462466  0.36107288  0.38687923     0.97900
O13         O  0.80787939  0.33633237  0.40320166    -0.82600
O14         O  0.79943290  0.27229398  0.42350487    -0.85300
C15         C  0.83140484  0.26161763  0.43437191     1.02400
O16         O  0.85739307  0.25654944  0.41703216    -0.78100
O17         O  0.89834034  0.25983766  0.36630295    -0.78200
C18         C  0.91402776  0.28817827  0.36970842     1.02400
Cr19       Cr  0.84723117  0.31315876  0.34191624     1.93700
Cr20       Cr  0.78401068  0.29673222  0.38362273     1.93200
Cr21       Cr  0.84573623  0.24575381  0.37340223     1.39100
O22         O  0.82543760  0.28539869  0.36650261    -1.23300
O23         O  0.64657046  0.47944804  0.19600319    -0.85600
O24         O  0.69088378  0.49387586  0.14916336    -0.82600
C25         C  0.72400228  0.48621293  0.15901650     0.97900
O26         O  0.73203400  0.45631317  0.16572878    -0.82600
O27         O  0.72099239  0.39069491  0.18393641    -0.85300
C28         C  0.70698580  0.38939781  0.21004474     1.02400
O29         O  0.67483075  0.40029472  0.21323009    -0.78000
O30         O  0.61264884  0.43647052  0.20645256    -0.78200
C31         C  0.62912621  0.46328873  0.21514069     1.02400
O32         O  0.58758310  0.45513149  0.15229560    -0.85600
O33         O  0.63668448  0.46206560  0.10760527    -0.82600
C34         C  0.66442881  0.45633725  0.09237922     0.97900
O35         O  0.69463740  0.44370841  0.10494388    -0.82600
O36         O  0.68330241  0.37883156  0.12321332    -0.85300
C37         C  0.67321480  0.35368798  0.13780622     1.02400
O38         O  0.65583056  0.35844776  0.16174871    -0.78100
O39         O  0.59296507  0.40059486  0.14888907    -0.78200
C40         C  0.57326452  0.42670939  0.14581303     1.02400
Cr41       Cr  0.64170774  0.46974226  0.15189173     1.93700
Cr42       Cr  0.70450312  0.41823152  0.14546990     1.93200
Cr43       Cr  0.63557119  0.40091338  0.18045222     1.39100
O44         O  0.66083922  0.42948625  0.15896954    -1.23300
O45         O  0.61597427  0.02488690  0.45750518    -0.85600
O46         O  0.67671283  0.06133772  0.46246973    -0.82600
C47         C  0.70879843  0.07139804  0.45843147     0.97900
O48         O  0.72207385  0.06905922  0.43197916    -0.82600
O49         O  0.72973384  0.00339132  0.41092180    -0.85300
C50         C  0.71972625  0.47607276  0.40180556     1.02400
O51         O  0.68591898  0.46941573  0.39332583    -0.78000
O52         O  0.64640905  0.48179119  0.44473276    -0.78200
C53         C  0.63333942  0.99767603  0.46467326     1.02400
O54         O  0.59176307  0.06209939  0.40051934    -0.85600
O55         O  0.65702445  0.10431524  0.41188810    -0.82600
C56         C  0.67499737  0.10779341  0.38795538     0.97900
O57         O  0.67996761  0.08239570  0.37217384    -0.82600
O58         O  0.68816447  0.01907138  0.35188179    -0.85300
C59         C  0.65658179  0.00805602  0.34039860     1.02400
O60         O  0.63007755  0.00310399  0.35713772    -0.78100
O61         O  0.58633722  0.00803069  0.40523407    -0.78200
C62         C  0.57160903  0.03622258  0.39805592     1.02400
Cr63       Cr  0.63629724  0.06130871  0.43076419     1.93700
Cr64       Cr  0.70224475  0.04283931  0.39290092     1.93200
Cr65       Cr  0.63942744  0.99283449  0.40063891     1.39100
O66         O  0.65976604  0.03241382  0.40811792    -1.23300
O67         O  0.83051283  0.22505825  0.07539616    -0.85600
O68         O  0.79102399  0.24174161  0.12510793    -0.82600
C69         C  0.75790594  0.23447072  0.11543399     0.97900
O70         O  0.74961452  0.20444927  0.10915537    -0.82600
O71         O  0.75930280  0.13578642  0.09630178    -0.85300
C72         C  0.77336034  0.12847389  0.07100828     1.02400
O73         O  0.80548236  0.13780790  0.06586545    -0.78000
O74         O  0.86262389  0.17996641  0.06440134    -0.78200
C75         C  0.84588785  0.20721046  0.05608688     1.02400
O76         O  0.89328009  0.20494084  0.11532926    -0.85600
O77         O  0.84844516  0.21172043  0.16457521    -0.82600
C78         C  0.82151260  0.20755240  0.18131064     0.97900
O79         O  0.79025347  0.19626563  0.16963763    -0.82600
O80         O  0.80104585  0.13109619  0.15647561    -0.85300
C81         C  0.81140006  0.10438339  0.14486717     1.02400
O82         O  0.82999669  0.10590175  0.12111180    -0.78100
O83         O  0.89146937  0.15163245  0.12488036    -0.78200
C84         C  0.91025790  0.17790813  0.12248735     1.02400
Cr85       Cr  0.83951189  0.21775580  0.11980607     1.93700
Cr86       Cr  0.77808314  0.16754690  0.13145380     1.93200
Cr87       Cr  0.84611702  0.14626579  0.09619206     1.39100
O88         O  0.82074691  0.17696302  0.11556303    -1.23300
O89         O  0.12227235  0.27395113  0.43311739    -0.85600
O90         O  0.18214451  0.31316575  0.43866833    -0.82600
C91         C  0.21368576  0.32505819  0.43478976     0.97900
O92         O  0.22594763  0.32433868  0.40795025    -0.82600
O93         O  0.23654658  0.25888031  0.38700015    -0.85300
C94         C  0.22792178  0.22989678  0.37775325     1.02400
O95         O  0.19499878  0.22406623  0.36648589    -0.78000
O96         O  0.15545591  0.23184941  0.41748739    -0.78200
C97         C  0.14010365  0.24678015  0.43869022     1.02400
O98         O  0.09534173  0.31239548  0.37845782    -0.85600
O99         O  0.15690567  0.35550697  0.38843484    -0.82600
C100        C  0.17263086  0.36138181  0.36376251     0.97900
O101        O  0.18498942  0.33753729  0.34878510    -0.82600
O102        O  0.19610717  0.27442804  0.32749670    -0.85300
C103        C  0.16490523  0.26398399  0.31477388     1.02400
O104        O  0.13767763  0.25848459  0.33077551    -0.78100
O105        O  0.09264477  0.25796023  0.37946930    -0.78200
C106        C  0.07635733  0.28594436  0.37565966     1.02400
Cr107      Cr  0.14061053  0.31202102  0.40747839     1.93700
Cr108      Cr  0.20785178  0.29788468  0.36901611     1.93200
Cr109      Cr  0.14636479  0.24585212  0.37422822     1.39100
O110        O  0.16516120  0.28552984  0.38349072    -1.23300
O111        O  0.33901000  0.47811527  0.06092404    -0.85600
O112        O  0.29999809  0.49268765  0.11177299    -0.82600
C113        C  0.26639253  0.48628936  0.10262989     0.97900
O114        O  0.25767027  0.45707283  0.09407190    -0.82600
O115        O  0.26466597  0.39118045  0.07415538    -0.85300
C116        C  0.27726956  0.38917628  0.04748301     1.02400
O117        O  0.31003929  0.39799676  0.04366832    -0.78000
O118        O  0.37143756  0.43476668  0.04824288    -0.78200
C119        C  0.35311747  0.46102361  0.04036648     1.02400
O120        O  0.40126010  0.45267515  0.10058438    -0.85600
O121        O  0.35661328  0.45790641  0.14846314    -0.82600
C122        C  0.32990573  0.45286459  0.16505436     0.97900
O123        O  0.29857734  0.44166589  0.15331134    -0.82600
O124        O  0.30570554  0.37710634  0.13356198    -0.85300
C125        C  0.31557245  0.35203183  0.11874464     1.02400
O126        O  0.33228284  0.35661480  0.09446713    -0.78100
O127        O  0.39597291  0.39829240  0.10461473    -0.78200
C128        C  0.41577408  0.42431231  0.10702368     1.02400
Cr129      Cr  0.34787591  0.46751483  0.10470696     1.93700
Cr130      Cr  0.28476207  0.41747306  0.11263561     1.93200
Cr131      Cr  0.35118790  0.39885637  0.07495283     1.39100
O132        O  0.32768616  0.42766881  0.09768001    -1.23300
O133        O  0.15072938  0.23223662  0.16962424    -0.85600
O134        O  0.19298008  0.24329677  0.12107777    -0.82600
C135        C  0.22556279  0.23566308  0.13230745     0.97900
O136        O  0.23327729  0.20576056  0.13935654    -0.82600
O137        O  0.22261515  0.13978476  0.15715091    -0.85300
C138        C  0.21010585  0.13773621  0.18377215     1.02400
O139        O  0.17875798  0.14961939  0.18870482    -0.78000
O140        O  0.11813881  0.18934374  0.18393695    -0.78200
C141        C  0.13522686  0.21662683  0.19017415     1.02400
O142        O  0.08930785  0.20776688  0.12933911    -0.85600
O143        O  0.13648354  0.21073587  0.08178592    -0.82600
C144        C  0.16388893  0.20516976  0.06592897     0.97900
O145        O  0.19435157  0.19340897  0.07886303    -0.82600
O146        O  0.18182502  0.12892296  0.09782641    -0.85300
C147        C  0.17249644  0.10440790  0.11351533     1.02400
O148        O  0.15506611  0.10961705  0.13748133    -0.78100
O149        O  0.09197288  0.15311812  0.12820646    -0.78200
C150        C  0.07296711  0.17975072  0.12588986     1.02400
Cr151      Cr  0.14352872  0.22048533  0.12599388     1.93700
Cr152      Cr  0.20482792  0.16795227  0.11940757     1.93200
Cr153      Cr  0.13735872  0.15244404  0.15723821     1.39100
O154        O  0.16203533  0.18006896  0.13409097    -1.23300
O155        O  0.37169010  0.02291833  0.29754842    -0.85600
O156        O  0.31080272  0.06172533  0.28898348    -0.82600
C157        C  0.27827644  0.07192922  0.29233947     0.97900
O158        O  0.26449054  0.07019209  0.31853595    -0.82600
O159        O  0.25346247  0.00546775  0.33809230    -0.85300
C160        C  0.26210372  0.47637714  0.34931102     1.02400
O161        O  0.29514889  0.46925878  0.35978061    -0.78000
O162        O  0.33906233  0.48185021  0.31157017    -0.78200
C163        C  0.35486825  0.99596114  0.28930749     1.02400
O164        O  0.39270920  0.05982127  0.35471319    -0.85600
O165        O  0.32913276  0.10337897  0.34048904    -0.82600
C166        C  0.31087137  0.10708856  0.36420850     0.97900
O167        O  0.30425309  0.08175166  0.37951209    -0.82600
O168        O  0.29108833  0.01895037  0.39888229    -0.85300
C169        C  0.32183447  0.00748483  0.41152132     1.02400
O170        O  0.34918803  0.00243286  0.39578636    -0.78100
O171        O  0.39717063  0.00551987  0.35098835    -0.78200
C172        C  0.41179331  0.03329124  0.35910283     1.02400
Cr173      Cr  0.34988802  0.06007135  0.32250723     1.93700
Cr174      Cr  0.28117018  0.04344125  0.35771186     1.93200
Cr175      Cr  0.34312946  0.99185264  0.35236466     1.39100
O176        O  0.32418017  0.03178491  0.34392789    -1.23300
C177        C  0.27836316  0.11476775  0.25155558    -0.06000
C178        C  0.25883878  0.08882479  0.26528897    -0.00100
C179        C  0.22477702  0.07730348  0.25061474    -0.08600
C180        C  0.21054927  0.09328142  0.22323949    -0.06000
C181        C  0.22998334  0.11941067  0.20970015    -0.00100
C182        C  0.26451128  0.13024281  0.22386843    -0.08500
C183        C  0.28613390  0.15829230  0.20994320     0.61800
H184        H  0.30496079  0.12268483  0.26270682     0.12500
H185        H  0.18387577  0.08552825  0.21211440     0.12500
C186        C  0.20443814  0.04765735  0.26324038     0.62100
F187        F  0.31808616  0.16647673  0.22827474    -0.23100
F188        F  0.26397532  0.18663673  0.20643502    -0.20400
F189        F  0.29668601  0.14850017  0.18136412    -0.20100
F190        F  0.19374040  0.05508526  0.29235289    -0.20200
F191        F  0.22787330  0.02001250  0.26500891    -0.20500
F192        F  0.17266192  0.03944549  0.24466973    -0.23200
C193        C  0.28381080  0.26056110  0.11458787    -0.06000
C194        C  0.25516568  0.26174114  0.13484379    -0.00100
C195        C  0.25383830  0.28899046  0.15539347    -0.08600
C196        C  0.27704002  0.31679882  0.15142689    -0.06000
C197        C  0.30200048  0.31803661  0.12782857    -0.00100
C198        C  0.30792340  0.28806450  0.11109623    -0.08500
C199        C  0.33869941  0.28489349  0.08919377     0.61800
H200        H  0.28588308  0.23861107  0.10023714     0.12500
H201        H  0.27388548  0.33863899  0.16568541     0.12500
C202        C  0.22801027  0.28857598  0.18141406     0.62100
F203        F  0.34511705  0.25176660  0.08178379    -0.23100
F204        F  0.37177145  0.29763828  0.10293199    -0.20400
F205        F  0.32884914  0.30202259  0.06214164    -0.20100
F206        F  0.23380972  0.25943589  0.19830923    -0.20200
F207        F  0.19120151  0.29008238  0.16951008    -0.20500
F208        F  0.23449118  0.31535318  0.20130453    -0.23200
C209        C  0.22488543  0.03217070  0.07745599    -0.06000
C210        C  0.24019668  0.01603318  0.10424924    -0.00100
C211        C  0.22774132  0.02562805  0.13316452    -0.08600
C212        C  0.20251850  0.05259985  0.13452941    -0.06000
C213        C  0.18965043  0.07083794  0.10815141    -0.00100
C214        C  0.19977798  0.05952870  0.07885644    -0.08500
C215        C  0.18442618  0.07614625  0.04913883     0.61800
H216        H  0.23390940  0.02405606  0.05543333     0.12500
H217        H  0.19467136  0.06107701  0.15678086     0.12500
C218        C  0.22044414  0.49361791  0.15691098     0.62100
F219        F  0.18919482  0.05600912  0.02380332    -0.23100
F220        F  0.20275574  0.10602654  0.04506210    -0.20400
F221        F  0.14649146  0.08220305  0.05012474    -0.20100
F222        F  0.25624271  0.49608661  0.17092174    -0.20200
F223        F  0.21407365  0.46114274  0.14684826    -0.20500
F224        F  0.19535640  0.50071124  0.17872571    -0.23200
C225        C  0.35903245  0.49120737  0.20428999    -0.06000
C226        C  0.33557345  0.46343281  0.19782301    -0.00100
C227        C  0.31997180  0.44670300  0.22237472    -0.08600
C228        C  0.32871121  0.45836561  0.25254921    -0.06000
C229        C  0.35174489  0.48656456  0.25917751    -0.00100
C230        C  0.36729865  0.50337577  0.23438235    -0.08500
C231        C  0.39210302  0.53411620  0.23897978     0.61800
H232        H  0.37043309  0.50396226  0.18515922     0.12500
H233        H  0.32393960  0.93858206  0.26925980     0.12500
C234        C  0.29463954  0.41649178  0.21707015     0.62100
F235        F  0.40546324  0.54494744  0.21164329    -0.23100
F236        F  0.42334377  0.02405612  0.25819016    -0.20400
F237        F  0.37195855  0.56025010  0.25047820    -0.20100
F238        F  0.31248308  0.39232587  0.20072728    -0.20200
F239        F  0.26168396  0.42598103  0.20073750    -0.20500
F240        F  0.28541677  0.40225201  0.24450840    -0.23200
C241        C  0.34860347  0.46863250  0.45218875    -0.06000
C242        C  0.32678196  0.99645632  0.44413969    -0.00100
C243        C  0.31481227  0.01483858  0.46925650    -0.08600
C244        C  0.32855910  0.00408332  0.99984024    -0.06000
C245        C  0.34592781  0.47160219  0.00755058    -0.00100
C246        C  0.36122696  0.45825447  0.48194847    -0.08500
C247        C  0.38822929  0.42878563  0.48514261     0.61800
H248        H  0.35681179  0.45456057  0.43250398     0.12500
H249        H  0.31969134  0.01855474  0.01902179     0.12500
C250        C  0.29177458  0.04633940  0.46448453     0.62100
F251        F  0.39734219  0.41662734  0.45683322    -0.23100
F252        F  0.36375287  0.39718260  0.99978105    -0.20400
F253        F  0.42106278  0.43907825  0.50089628    -0.20100
F254        F  0.25776744  0.03846957  0.44904709    -0.20200
F255        F  0.31105795  0.06886383  0.44755160    -0.20500
F256        F  0.28980165  0.06297423  0.99235960    -0.23200
C257        C  0.21954335  0.33166214  0.99226057    -0.06000
C258        C  0.23352267  0.34151258  0.46257255    -0.00100
C259        C  0.26443973  0.36332665  0.46144738    -0.08600
C260        C  0.27725284  0.38051670  0.48852817    -0.06000
C261        C  0.25628861  0.37488204  0.01948463    -0.00100
C262        C  0.23101492  0.34783587  0.02021732    -0.08500
C263        C  0.21667794  0.33555369  0.05017000     0.61800
H264        H  0.20029157  0.31084727  0.99273106     0.12500
H265        H  0.30041130  0.39764083  0.48729408     0.12500
C266        C  0.28417721  0.36867724  0.43212131     0.62100
F267        F  0.19174652  0.30930257  0.04547875    -0.23100
F268        F  0.19832631  0.36130534  0.06406968    -0.20400
F269        F  0.24630902  0.32451990  0.06977110    -0.20100
F270        F  0.25969914  0.38282584  0.40963218    -0.20200
F271        F  0.29716361  0.33834304  0.42182580    -0.20500
F272        F  0.31465072  0.38980165  0.43673016    -0.23200
C273        C  0.12278560  0.21820691  0.01874126    -0.06000
C274        C  0.15965991  0.21418386  0.03231915    -0.00100
C275        C  0.19006524  0.22186143  0.01433176    -0.08600
C276        C  0.18244381  0.23810009  0.48491783    -0.06000
C277        C  0.14643317  0.23415115  0.47047611    -0.00100
C278        C  0.11515427  0.23014296  0.98844380    -0.08500
C279        C  0.07496351  0.23605666  0.97580981     0.61800
H280        H  0.09997667  0.21299720  0.03221610     0.12500
H281        H  0.20341345  0.25006633  0.47199638     0.12500
C282        C  0.23045039  0.22181416  0.02781437     0.62100
F283        F  0.04952741  0.22515198  0.99599115    -0.23100
F284        F  0.08090164  0.19500348  0.44469491    -0.20400
F285        F  0.06903097  0.26991508  0.97088567    -0.20100
F286        F  0.24132173  0.18972016  0.03644532    -0.20200
F287        F  0.23391123  0.24279047  0.05315510    -0.20500
F288        F  0.25087140  0.25514127  0.51166774    -0.23200
C289        C  0.12472655  0.26187642  0.26577036    -0.06000
C290        C  0.15988109  0.25514432  0.28148611    -0.00100
C291        C  0.18648367  0.23585449  0.26653899    -0.08600
C292        C  0.17627675  0.22278375  0.23713089    -0.06000
C293        C  0.14106262  0.22893345  0.22199070    -0.00100
C294        C  0.11511997  0.24948376  0.23586807    -0.08500
C295        C  0.07787085  0.25834640  0.21889348     0.61800
H296        H  0.10469756  0.27675608  0.27724374     0.12500
H297        H  0.19597386  0.20780574  0.22540382     0.12500
C298        C  0.22528830  0.22862565  0.28139927     0.62100
F299        F  0.05659156  0.27898111  0.23627461    -0.23100
F300        F  0.05776920  0.22945588  0.21202273    -0.20400
F301        F  0.08394055  0.27481593  0.19173972    -0.20100
F302        F  0.22270857  0.21232914  0.30913771    -0.20200
F303        F  0.24431764  0.25844044  0.28604902    -0.20500
F304        F  0.24598501  0.20844545  0.26319191    -0.23200
C305        C  0.22350556  0.43027962  0.32517259    -0.06000
C306        C  0.23195535  0.45114321  0.35062164    -0.00100
C307        C  0.21204642  0.44706798  0.37734788    -0.08600
C308        C  0.18783571  0.41959308  0.37914746    -0.06000
C309        C  0.18298720  0.39615512  0.35516515    -0.00100
C310        C  0.19796533  0.40363212  0.32654320    -0.08500
C311        C  0.18845144  0.38372011  0.29731566     0.61800
H312        H  0.23736865  0.43453887  0.30418621     0.12500
H313        H  0.17570020  0.41441468  0.40071270     0.12500
C314        C  0.21854669  0.46997240  0.40496309     0.62100
F315        F  0.18344946  0.40521532  0.27235294    -0.23100
F316        F  0.15560239  0.36585132  0.29875103    -0.20400
F317        F  0.21745547  0.36191822  0.29243009    -0.20100
F318        F  0.21467520  0.50301494  0.39574708    -0.20200
F319        F  0.24585896  0.96870661  0.41456146    -0.20500
F320        F  0.19326859  0.46416603  0.42689253    -0.23200
C321        C  0.30901823  0.17017706  0.36443897    -0.06000
C322        C  0.29247395  0.13953254  0.37187349    -0.00100
C323        C  0.25662114  0.14033001  0.38441670    -0.08600
C324        C  0.23937940  0.17119691  0.38876132    -0.06000
C325        C  0.25460379  0.20130592  0.37971983    -0.00100
C326        C  0.29068180  0.20128994  0.36835021    -0.08500
C327        C  0.30931317  0.23367862  0.35996013     0.61800
H328        H  0.33609970  0.16951694  0.35502487     0.12500
H329        H  0.21224326  0.17212475  0.39811000     0.12500
C330        C  0.23466237  0.10924637  0.39215281     0.62100
F331        F  0.34391005  0.22809802  0.34870466    -0.23100
F332        F  0.31446598  0.25373091  0.38583782    -0.20400
F333        F  0.28714531  0.25046328  0.33761051    -0.20100
F334        F  0.25322600  0.09282742  0.41649943    -0.20200
F335        F  0.23016105  0.08831415  0.36695500    -0.20500
F336        F  0.19915979  0.11668631  0.40081509    -0.23200
C337        C  0.96959879  0.19704883  0.10291016    -0.06000
C338        C  0.95199775  0.17700732  0.12408415    -0.00100
C339        C  0.97443422  0.15680187  0.14507380    -0.08600
C340        C  0.01377389  0.15784021  0.14425249    -0.06000
C341        C  0.03127537  0.17821774  0.12326491    -0.00100
C342        C  0.00876479  0.19773650  0.10185168    -0.08500
C343        C  0.02580960  0.21744843  0.07667101     0.61800
H344        H  0.95218529  0.21184134  0.08655708     0.12500
H345        H  0.03136699  0.14309026  0.16050825     0.12500
C346        C  0.95719397  0.13510042  0.16887044     0.62100
F347        F  0.99878298  0.23152298  0.05609173    -0.23100
F348        F  0.04737042  0.19609379  0.06038340    -0.20400
F349        F  0.04782416  0.24305008  0.08930690    -0.20100
F350        F  0.93730890  0.10923780  0.15431512    -0.20200
F351        F  0.93343076  0.15417347  0.18543999    -0.20500
F352        F  0.98413726  0.12113997  0.18957529    -0.23200
C353        C  0.50825124  0.01157753  0.39856170    -0.06000
C354        C  0.53039797  0.03798246  0.38884421    -0.00100
C355        C  0.51268193  0.06400290  0.37068623    -0.08600
C356        C  0.47385018  0.06173840  0.36214484    -0.06000
C357        C  0.45206386  0.03472390  0.37115931    -0.00100
C358        C  0.46950632  0.00957665  0.39055285    -0.08500
C359        C  0.44747102  0.98163665  0.40448496     0.61800
H360        H  0.52164787  0.99229029  0.41300085     0.12500
H361        H  0.46021323  0.08091559  0.34770416     0.12500
C362        C  0.53440106  0.09370375  0.35965981     0.62100
F363        F  0.46952507  0.96248492  0.42533898    -0.23100
F364        F  0.43258012  0.96031478  0.38176076    -0.20400
F365        F  0.41915613  0.99545457  0.42020100    -0.20100
F366        F  0.56379183  0.08259634  0.34344408    -0.20200
F367        F  0.54808907  0.11252234  0.38471147    -0.20500
F368        F  0.51222213  0.11448380  0.34037904    -0.23200
C369        C  0.75711168  0.07054151  0.00252128    -0.06000
C370        C  0.72840179  0.08704710  0.48586270    -0.00100
C371        C  0.71255021  0.11549093  0.49982861    -0.08600
C372        C  0.72548013  0.12464666  0.53001484    -0.06000
C373        C  0.75324668  0.10995375  0.04535239    -0.00100
C374        C  0.76940784  0.08092271  0.03259671    -0.08500
C375        C  0.79845354  0.06012036  0.05130211     0.61800
H376        H  0.76779828  0.04767466  0.99304377     0.12500
H377        H  0.71484147  0.14700125  0.54043941     0.12500
C378        C  0.68312839  0.13713588  0.48236815     0.62100
F379        F  0.80678040  0.03070515  0.03640481    -0.23100
F380        F  0.78460335  0.05180745  0.07900906    -0.20400
F381        F  0.83134977  0.07783016  0.05676562    -0.20100
F382        F  0.65014472  0.11959591  0.47678328    -0.20200
F383        F  0.69621211  0.14694588  0.45472178    -0.20500
F384        F  0.67515509  0.16575946  0.49861554    -0.23200
C385        C  0.52167922  0.41999723  0.10519533    -0.06000
C386        C  0.53287957  0.42402501  0.13649476    -0.00100
C387        C  0.50551665  0.42556077  0.15831009    -0.08600
C388        C  0.46740050  0.42471803  0.14787872    -0.06000
C389        C  0.45616565  0.42200632  0.11647988    -0.00100
C390        C  0.48351865  0.41902773  0.09476912    -0.06100
C391        C  0.47222063  0.41621130  0.06068961     0.61800
H392        H  0.54306660  0.41849524  0.08893749     0.12500
H393        H  0.44602025  0.42671413  0.16410654     0.12500
C394        C  0.51676985  0.42759383  0.19245179     0.62100
F395        F  0.50283454  0.41215134  0.04343009    -0.23100
F396        F  0.45370733  0.44518344  0.05110773    -0.20400
F397        F  0.44886174  0.38898305  0.05530342    -0.20100
F398        F  0.53598257  0.45705517  0.19876511    -0.20200
F399        F  0.53941263  0.40050456  0.20091292    -0.20500
F400        F  0.48612049  0.42697074  0.20999777    -0.23200
C401        C  0.70775512  0.31780837  0.10239240    -0.06000
C402        C  0.68645803  0.31942675  0.12842987    -0.00100
C403        C  0.68372690  0.28972819  0.14645092    -0.08600
C404        C  0.70397763  0.26082545  0.13863814    -0.06000
C405        C  0.72878052  0.26117354  0.11520221    -0.00100
C406        C  0.72983522  0.28969576  0.09610174    -0.08500
C407        C  0.75505121  0.29070351  0.06961110     0.61800
H408        H  0.70937126  0.33978432  0.08806625     0.12500
H409        H  0.70342500  0.23856429  0.15275145     0.12500
C410        C  0.66208595  0.28863735  0.17513652     0.62100
F411        F  0.74947439  0.31939679  0.05198222    -0.23100
F412        F  0.74774894  0.26341038  0.05058938    -0.20400
F413        F  0.79214429  0.28989364  0.08095708    -0.20100
F414        F  0.62548410  0.29870096  0.16799924    -0.20200
F415        F  0.67895851  0.30941121  0.19746757    -0.20500
F416        F  0.66123563  0.25676077  0.18756994    -0.23200
C417        C  0.74551986  0.04097736  0.17796886    -0.06000
C418        C  0.75347142  0.01229626  0.16121739    -0.00100
C419        C  0.78646705  0.01165880  0.14512357    -0.08600
C420        C  0.80733087  0.04152404  0.14279398    -0.06000
C421        C  0.79666309  0.07167894  0.15648074    -0.00100
C422        C  0.76733547  0.07025234  0.17708787    -0.08500
C423        C  0.75765221  0.09931981  0.19769685     0.61800
H424        H  0.72103737  0.04062595  0.19110394     0.12500
H425        H  0.83086940  0.04196060  0.12864537     0.12500
C426        C  0.79580883  0.48158343  0.12659429     0.62100
F427        F  0.73466424  0.08935093  0.22015929    -0.23100
F428        F  0.73904731  0.12412118  0.18035771    -0.20400
F429        F  0.78995417  0.11208698  0.21275287    -0.20100
F430        F  0.76691550  0.47332746  0.10509786    -0.20200
F431        F  0.80269612  0.45503396  0.14664419    -0.20500
F432        F  0.82762973  0.48665905  0.11105427    -0.23200
C433        C  0.64778085  0.44208675  0.03807594    -0.06000
C434        C  0.66078143  0.46610263  0.05970265    -0.00100
C435        C  0.66269005  0.50012679  0.05088031    -0.08600
C436        C  0.65254126  0.01005075  0.01982656    -0.06000
C437        C  0.63610504  0.48621239  0.49745560    -0.00100
C438        C  0.63054522  0.45241913  0.50604845    -0.08500
C439        C  0.61126806  0.42756629  0.48373880     0.61800
H440        H  0.64527389  0.41648701  0.04578080     0.12500
H441        H  0.65404147  0.03601574  0.01303093     0.12500
C442        C  0.67672111  0.02715676  0.07379944     0.62100
F443        F  0.60297330  0.39798147  0.49830285    -0.23100
F444        F  0.63411858  0.41993870  0.46050172    -0.20400
F445        F  0.57803976  0.44114875  0.47096990    -0.20100
F446        F  0.71221021  0.01885587  0.08623750    -0.20200
F447        F  0.65271709  0.02895434  0.09716394    -0.20500
F448        F  0.67840294  0.05858767  0.06056774    -0.23200
C449        C  0.64930984  0.00466567  0.25271892    -0.06000
C450        C  0.63023225  0.47590762  0.24750820    -0.00100
C451        C  0.62017368  0.45671038  0.27315864    -0.08600
C452        C  0.62969605  0.46901263  0.30297333    -0.06000
C453        C  0.65044580  0.99698969  0.30791826    -0.00100
C454        C  0.65849749  0.01684957  0.28255800    -0.08500
C455        C  0.67782639  0.05018773  0.28688450     0.61800
H456        H  0.65596911  0.01993972  0.23331781     0.12500
H457        H  0.62318485  0.45434162  0.32282908     0.12500
C458        C  0.59903371  0.42387879  0.26987015     0.62100
F459        F  0.67885915  0.06756785  0.25942914    -0.23100
F460        F  0.71420469  0.04439633  0.29857019    -0.20400
F461        F  0.65922600  0.06990166  0.30697332    -0.20100
F462        F  0.62004139  0.40011881  0.25583964    -0.20200
F463        F  0.56561511  0.42916822  0.25268017    -0.20500
F464        F  0.59057442  0.41103693  0.29808877    -0.23200
C465        C  0.97388056  0.26499890  0.35464558    -0.06000
C466        C  0.95561733  0.28998537  0.37071097    -0.00100
C467        C  0.97734765  0.31506104  0.38667870    -0.08600
C468        C  0.01667284  0.31342351  0.38664688    -0.06000
C469        C  0.03484206  0.28765216  0.37150162    -0.00100
C470        C  0.01303239  0.26335111  0.35459649    -0.08500
C471        C  0.03058710  0.23574480  0.33638045     0.61800
H472        H  0.95706838  0.24626616  0.34211443     0.12500
H473        H  0.03372019  0.33188587  0.39934739     0.12500
C474        C  0.95953683  0.34274687  0.40454454     0.62100
F475        F  0.04686556  0.21205990  0.35639649    -0.23100
F476        F  0.05740093  0.24900944  0.31869714    -0.20400
F477        F  0.00432542  0.21970338  0.31656582    -0.20100
F478        F  0.98603850  0.36172702  0.42149338    -0.20200
F479        F  0.93599226  0.32907100  0.42489022    -0.20500
F480        F  0.93934420  0.36394110  0.38433177    -0.23200
C481        C  0.70250960  0.35361124  0.25563589    -0.06000
C482        C  0.72552895  0.37296299  0.23752724    -0.00100
C483        C  0.76297117  0.37906942  0.24821512    -0.08600
C484        C  0.77646083  0.36453284  0.27627667    -0.06000
C485        C  0.75378710  0.34428059  0.29378305    -0.00100
C486        C  0.71601224  0.33921749  0.28378845    -0.08500
C487        C  0.69054170  0.31834284  0.30239478     0.61800
H488        H  0.67352431  0.34978792  0.24744654     0.12500
H489        H  0.80542473  0.36832733  0.28460715     0.12500
C490        C  0.78815961  0.40136208  0.23063155     0.62100
F491        F  0.65490768  0.31565124  0.28789949    -0.23100
F492        F  0.68754806  0.33310974  0.33087420    -0.20400
F493        F  0.70513132  0.28641976  0.30653629    -0.20100
F494        F  0.77172942  0.43253134  0.22611367    -0.20200
F495        F  0.79376107  0.38711732  0.20236943    -0.20500
F496        F  0.82283407  0.40581433  0.24641707    -0.23200
C497        C  0.80627770  0.23892612  0.26272532    -0.06000
C498        C  0.84292145  0.23776195  0.27646539    -0.00100
C499        C  0.87235761  0.22668361  0.25923126    -0.08600
C500        C  0.86375831  0.21579024  0.22871219    -0.06000
C501        C  0.82700192  0.21715889  0.21453665    -0.00100
C502        C  0.79783986  0.22995545  0.23167565    -0.08500
C503        C  0.75872883  0.23669615  0.21698618     0.61800
H504        H  0.78440139  0.24819100  0.27637111     0.12500
H505        H  0.88601072  0.20658623  0.21547727     0.12500
C506        C  0.91249517  0.22631427  0.27315527     0.62100
F507        F  0.73664569  0.25355984  0.23673852    -0.23100
F508        F  0.74112225  0.20689903  0.20885082    -0.20400
F509        F  0.76116398  0.25647355  0.19114559    -0.20100
F510        F  0.91508664  0.20695714  0.29960604    -0.20200
F511        F  0.92374517  0.25859983  0.28051930    -0.20500
F512        F  0.93684909  0.21330441  0.25297045    -0.23200
C513        C  0.80919653  0.22740059  0.47538572    -0.06000
C514        C  0.83643012  0.24943593  0.46641553    -0.00100
C515        C  0.86877582  0.25560756  0.48651569    -0.08600
C516        C  0.87227928  0.23964141  0.01423815    -0.06000
C517        C  0.84364965  0.21915511  0.02381971    -0.00100
C518        C  0.81347192  0.21021836  0.50345031    -0.08500
C519        C  0.78501388  0.18405552  0.51017845     0.61800
H520        H  0.78529399  0.22231678  0.45927113     0.12500
H521        H  0.89698957  0.24326617  0.02984046     0.12500
C522        C  0.89887383  0.27961307  0.47775299     0.62100
F523        F  0.75494752  0.18373636  0.48822232    -0.23100
F524        F  0.76917227  0.19696261  0.04131539    -0.20400
F525        F  0.80217600  0.15308526  0.50989136    -0.20100
F526        F  0.88267143  0.30951852  0.46766190    -0.20200
F527        F  0.91823541  0.26579846  0.45452469    -0.20500
F528        F  0.92434410  0.28646601  0.50250268    -0.23200
C529        C  0.79185699  0.41760631  0.36987730    -0.06000
C530        C  0.79850794  0.39466770  0.39429078    -0.00100
C531        C  0.78333055  0.40201902  0.42298413    -0.08600
C532        C  0.75851495  0.42939401  0.42475529    -0.06000
C533        C  0.74924161  0.45013141  0.39937220    -0.00100
C534        C  0.76753843  0.44523231  0.37193046    -0.08500
C535        C  0.76005762  0.46817013  0.34433390     0.61800
H536        H  0.80370592  0.41248852  0.34820550     0.12500
H537        H  0.74503053  0.43407255  0.44580310     0.12500
C538        C  0.79197800  0.38087651  0.45167539     0.62100
F539        F  0.78301688  0.46088980  0.32098972    -0.23100
F540        F  0.76635392  0.50107255  0.35312399    -0.20400
F541        F  0.71787008  0.95836570  0.33267136    -0.20100
F542        F  0.82962639  0.37267167  0.45470831    -0.20200
F543        F  0.77072414  0.35201218  0.44985579    -0.20500
F544        F  0.78385306  0.39796475  0.47806967    -0.23200
C545        C  0.68104783  0.17097794  0.38958488    -0.06000
C546        C  0.69515025  0.13973289  0.38068560    -0.00100
C547        C  0.73056618  0.13927794  0.36733939    -0.08600
C548        C  0.75026487  0.16927388  0.36452886    -0.06000
C549        C  0.73705687  0.19998689  0.37440531    -0.00100
C550        C  0.70128668  0.20124651  0.38645510    -0.08500
C551        C  0.68513401  0.23408194  0.39685296     0.61800
H552        H  0.65431184  0.17141529  0.39958454     0.12500
H553        H  0.77719856  0.16900913  0.35482887     0.12500
C554        C  0.74878186  0.10761184  0.35604402     0.62100
F555        F  0.65087082  0.22971185  0.40899338    -0.23100
F556        F  0.67995156  0.25560070  0.37196607    -0.20400
F557        F  0.70936125  0.24849559  0.41932619    -0.20100
F558        F  0.72660517  0.09493777  0.33164339    -0.20200
F559        F  0.75338401  0.08426689  0.37942448    -0.20500
F560        F  0.78380092  0.11329918  0.34564347    -0.23200
O561        O  0.86939414  0.27399722  0.81413289    -0.85600
O562        O  0.80762021  0.31040317  0.81048990    -0.82600
C563        C  0.77679604  0.32281350  0.81573695     0.97900
O564        O  0.76521277  0.32214067  0.84276213    -0.82600
O565        O  0.75660939  0.25630391  0.86365212    -0.85300
C566        C  0.76585630  0.22721527  0.87249342     1.02400
O567        O  0.79962492  0.22105936  0.88164053    -0.78000
O568        O  0.83743960  0.23118585  0.82954669    -0.78200
C569        C  0.85249124  0.24651028  0.80842013     1.02400
O570        O  0.89585538  0.31256429  0.86841065    -0.85600
O571        O  0.83170899  0.35454435  0.85947786    -0.82600
C572        C  0.81691772  0.35960304  0.88476993     0.97900
O573        O  0.80891890  0.33489916  0.90061206    -0.82600
O574        O  0.79949890  0.27169461  0.92128917    -0.85300
C575        C  0.83134321  0.26169166  0.93308857     1.02400
O576        O  0.85784960  0.25626696  0.91638970    -0.78100
O577        O  0.90035272  0.25816465  0.86650426    -0.78200
C578        C  0.91589445  0.28660168  0.86937674     1.02400
Cr579      Cr  0.84994789  0.31117663  0.84038031     1.93700
Cr580      Cr  0.78541085  0.29544904  0.88079051     1.93200
Cr581      Cr  0.84751833  0.24432703  0.87294638     1.39100
O582        O  0.82735314  0.28378807  0.86477273    -1.23300
O583        O  0.65042978  0.47570549  0.69571808    -0.85600
O584        O  0.69233804  0.49109768  0.64768892    -0.82600
C585        C  0.72572713  0.48347140  0.65658196     0.97900
O586        O  0.73440289  0.45336499  0.66176818    -0.82600
O587        O  0.72438657  0.38750860  0.67958830    -0.85300
C588        C  0.71164129  0.38611640  0.70616593     1.02400
O589        O  0.68000163  0.39744415  0.71058704    -0.78000
O590        O  0.61682417  0.43261373  0.70618101    -0.78200
C591        C  0.63352771  0.45923033  0.71501043     1.02400
O592        O  0.59015335  0.45210401  0.65281752    -0.85600
O593        O  0.63675631  0.46018477  0.60687846    -0.82600
C594        C  0.66344944  0.45434330  0.59051100     0.97900
O595        O  0.69410018  0.44137903  0.60187292    -0.82600
O596        O  0.68383827  0.37587330  0.62011755    -0.85300
C597        C  0.67482788  0.35065541  0.63522587     1.02400
O598        O  0.65880117  0.35539593  0.65985102    -0.78100
O599        O  0.59516091  0.39747581  0.64899977    -0.78200
C600        C  0.57576939  0.42383421  0.64605838     1.02400
Cr601      Cr  0.64376553  0.46684652  0.65132053     1.93700
Cr602      Cr  0.70597988  0.41541653  0.64191329     1.93200
Cr603      Cr  0.63910498  0.39768112  0.67924242     1.39100
O604        O  0.66311525  0.42648550  0.65705763    -1.23300
O605        O  0.61833900  0.02491876  0.95763769    -0.85600
O606        O  0.67910388  0.06134427  0.96186416    -0.82600
C607        C  0.71086924  0.07194858  0.95744972     0.97900
O608        O  0.72386348  0.06950589  0.93083839    -0.82600
O609        O  0.73186662  0.00352005  0.91005360    -0.85300
C610        C  0.72292696  0.47378693  0.90282686     1.02400
O611        O  0.68922621  0.46665215  0.89443661    -0.78000
O612        O  0.64957952  0.47981625  0.94555887    -0.78200
C613        C  0.63570298  0.99771984  0.96491309     1.02400
O614        O  0.59397680  0.06162355  0.90018719    -0.85600
O615        O  0.65886264  0.10400899  0.91107894    -0.82600
C616        C  0.67618473  0.10736198  0.88680520     0.97900
O617        O  0.68079132  0.08181712  0.87115305    -0.82600
O618        O  0.68923351  0.01839289  0.85127114    -0.85300
C619        C  0.65753441  0.00707837  0.84029816     1.02400
O620        O  0.63149528  0.00193822  0.85743431    -0.78100
O621        O  0.58825840  0.00756045  0.90565947    -0.78200
C622        C  0.57391565  0.03570377  0.89782252     1.02400
Cr623      Cr  0.63843426  0.06110771  0.93040747     1.93700
Cr624      Cr  0.70376650  0.04263353  0.89203879     1.93200
Cr625      Cr  0.64139886  0.99232078  0.90095201     1.39100
O626        O  0.66169805  0.03204545  0.90784709    -1.23300
O627        O  0.83241224  0.22173611  0.57561604    -0.85600
O628        O  0.79358674  0.23799415  0.62602232    -0.82600
C629        C  0.76039040  0.23073504  0.61651978     0.97900
O630        O  0.75210301  0.20067841  0.61035494    -0.82600
O631        O  0.76181285  0.13223891  0.59725875    -0.85300
C632        C  0.77541399  0.12473291  0.57187633     1.02400
O633        O  0.80767278  0.13349447  0.56646823    -0.78000
O634        O  0.86414566  0.17660360  0.56389429    -0.78200
C635        C  0.84752846  0.20403147  0.55602320     1.02400
O636        O  0.89592768  0.20208076  0.61468571    -0.85600
O637        O  0.85189585  0.20784685  0.66472103    -0.82600
C638        C  0.82527961  0.20317047  0.68170584     0.97900
O639        O  0.79395265  0.19214988  0.67010854    -0.82600
O640        O  0.80486591  0.12746590  0.65677832    -0.85300
C641        C  0.81549913  0.10087092  0.64518034     1.02400
O642        O  0.83402724  0.10245618  0.62140044    -0.78100
O643        O  0.89517608  0.14873521  0.62375040    -0.78200
C644        C  0.91358974  0.17522408  0.62119860     1.02400
Cr645      Cr  0.84213521  0.21424414  0.61998554     1.93700
Cr646      Cr  0.78126013  0.16377125  0.63211626     1.93200
Cr647      Cr  0.84894933  0.14281425  0.59604129     1.39100
O648        O  0.82361512  0.17336386  0.61572847    -1.23300
O649        O  0.12219495  0.27548782  0.93166374    -0.85600
O650        O  0.18037431  0.31597955  0.93805638    -0.82600
C651        C  0.21289262  0.32606877  0.93517885     0.97900
O652        O  0.22690291  0.32431770  0.90904283    -0.82600
O653        O  0.23776157  0.25898943  0.88825704    -0.85300
C654        C  0.22935309  0.23005318  0.87876311     1.02400
O655        O  0.19669801  0.22440046  0.86698403    -0.78000
O656        O  0.15663679  0.23346658  0.91771768    -0.78200
C657        C  0.14055690  0.24881065  0.93833093     1.02400
O658        O  0.09653625  0.31234172  0.87540275    -0.85600
O659        O  0.15658207  0.35660221  0.88637702    -0.82600
C660        C  0.17386683  0.36217925  0.86247015     0.97900
O661        O  0.18843279  0.33830715  0.84894184    -0.82600
O662        O  0.19885563  0.27492104  0.82794133    -0.85300
C663        C  0.16787680  0.26438191  0.81479088     1.02400
O664        O  0.14033962  0.25833636  0.83035186    -0.78100
O665        O  0.09418772  0.25809405  0.87842152    -0.78200
C666        C  0.07775573  0.28578193  0.87338523     1.02400
Cr667      Cr  0.14050361  0.31326795  0.90570731     1.93700
Cr668      Cr  0.20985681  0.29827064  0.86968798     1.93200
Cr669      Cr  0.14812246  0.24639627  0.87406755     1.39100
O670        O  0.16646617  0.28635119  0.88306851    -1.23300
O671        O  0.34263424  0.48262546  0.56110866    -0.85600
O672        O  0.30333097  0.49426539  0.61235158    -0.82600
C673        C  0.26987479  0.48784615  0.60277887     0.97900
O674        O  0.26135130  0.45884480  0.59345389    -0.82600
O675        O  0.26950535  0.39346023  0.57186278    -0.85300
C676        C  0.28173395  0.39238542  0.54498494     1.02400
O677        O  0.31371321  0.40336945  0.54111017    -0.78000
O678        O  0.37564936  0.44004822  0.54776983    -0.78200
C679        C  0.35704886  0.46620437  0.54026901     1.02400
O680        O  0.40489018  0.45559846  0.60029081    -0.85600
O681        O  0.36027948  0.45869331  0.64810379    -0.82600
C682        C  0.33370163  0.45287616  0.66462762     0.97900
O683        O  0.30235641  0.44206337  0.65250756    -0.82600
O684        O  0.31097518  0.37858376  0.63070880    -0.85300
C685        C  0.31964974  0.35413756  0.61457672     1.02400
O686        O  0.33597631  0.35973965  0.59031098    -0.78100
O687        O  0.39928752  0.40107814  0.60256228    -0.78200
C688        C  0.41918032  0.42695805  0.60589952     1.02400
Cr689      Cr  0.35147297  0.47010529  0.60465470     1.93700
Cr690      Cr  0.28895956  0.41908849  0.61103469     1.93200
Cr691      Cr  0.35498237  0.40284788  0.57257148     1.39100
O692        O  0.33150717  0.43047157  0.59627903    -1.23300
O693        O  0.15362039  0.23576738  0.66845229    -0.85600
O694        O  0.19585966  0.24567465  0.61945718    -0.82600
C695        C  0.22843503  0.23877561  0.63117188     0.97900
O696        O  0.23624561  0.20947980  0.64005413    -0.82600
O697        O  0.22683020  0.14351955  0.65874009    -0.85300
C698        C  0.21389405  0.14204458  0.68524188     1.02400
O699        O  0.18242847  0.15411759  0.68927525    -0.78000
O700        O  0.12164648  0.19261517  0.68325918    -0.78200
C701        C  0.13841975  0.22017265  0.68921420     1.02400
O702        O  0.09280905  0.20939229  0.62878278    -0.85600
O703        O  0.13989866  0.21111999  0.58128126    -0.82600
C704        C  0.16763200  0.20555852  0.56581975     0.97900
O705        O  0.19860086  0.19540381  0.57922874    -0.82600
O706        O  0.18724822  0.13165656  0.59909934    -0.85300
C707        C  0.17788882  0.10684333  0.61427145     1.02400
O708        O  0.16042629  0.11184113  0.63834950    -0.78100
O709        O  0.09650843  0.15484940  0.62794279    -0.78200
C710        C  0.07692498  0.18118434  0.62537676     1.02400
Cr711      Cr  0.14672982  0.22262188  0.62510268     1.93700
Cr712      Cr  0.20916633  0.17097415  0.62037424     1.93200
Cr713      Cr  0.14156937  0.15519760  0.65742982     1.39100
O714        O  0.16593330  0.18270910  0.63419938    -1.23300
O715        O  0.37479084  0.02424391  0.79807247    -0.85600
O716        O  0.31322843  0.06187692  0.79001385    -0.82600
C717        C  0.28105238  0.07286516  0.79345753     0.97900
O718        O  0.26734433  0.07067512  0.81964768    -0.82600
O719        O  0.25695358  0.00505837  0.83868733    -0.85300
C720        C  0.26021317  0.47832416  0.84921781     1.02400
O721        O  0.29307004  0.46987846  0.85910923    -0.78000
O722        O  0.33746049  0.48205428  0.81123611    -0.78200
C723        C  0.35795666  0.99733692  0.78974125     1.02400
O724        O  0.39557486  0.06116600  0.85515959    -0.85600
O725        O  0.33130501  0.10393031  0.84155396    -0.82600
C726        C  0.31303922  0.10741532  0.86531796     0.97900
O727        O  0.30662445  0.08194073  0.88054558    -0.82600
O728        O  0.29444569  0.01882672  0.89950521    -0.85300
C729        C  0.32520682  0.00748409  0.91220302     1.02400
O730        O  0.35267063  0.00240129  0.89658449    -0.78100
O731        O  0.40065606  0.00671107  0.85180104    -0.78200
C732        C  0.41483784  0.03477995  0.85962541     1.02400
Cr733      Cr  0.35254103  0.06090890  0.82329208     1.93700
Cr734      Cr  0.28419138  0.04342121  0.85852235     1.93200
Cr735      Cr  0.34679151  0.99238682  0.85302720     1.39100
O736        O  0.32742298  0.03227257  0.84484344    -1.23300
C737        C  0.28541308  0.10914246  0.74771294    -0.06000
C738        C  0.26218177  0.09094045  0.76656158    -0.00100
C739        C  0.22337872  0.08941429  0.75811407    -0.08600
C740        C  0.20944819  0.10572417  0.73086301    -0.06000
C741        C  0.23271927  0.12379532  0.71198389    -0.00100
C742        C  0.27137102  0.12579261  0.72067834    -0.08500
C743        C  0.29739449  0.14626224  0.70221805     0.61800
H744        H  0.31509254  0.11047464  0.75452570     0.12500
H745        H  0.17976728  0.10450141  0.72402132     0.12500
C746        C  0.19691131  0.07016605  0.77719747     0.62100
F747        F  0.33336762  0.14732035  0.71628453    -0.23100
F748        F  0.28423993  0.17879514  0.69927775    -0.20400
F749        F  0.29921334  0.13233861  0.67326304    -0.20100
F750        F  0.19609585  0.08473878  0.80597147    -0.20200
F751        F  0.20878133  0.03729039  0.78047622    -0.20500
F752        F  0.16068110  0.07005346  0.76359893    -0.23200
C753        C  0.28238067  0.26424327  0.60782749    -0.06000
C754        C  0.25810065  0.26453401  0.63158797    -0.00100
C755        C  0.26048515  0.29072730  0.65331876    -0.08600
C756        C  0.28461689  0.31769863  0.64871264    -0.06000
C757        C  0.30516356  0.32008684  0.62228994    -0.00100
C758        C  0.30534409  0.29188712  0.60212849    -0.08500
C759        C  0.32763008  0.29110852  0.57376426     0.61800
H760        H  0.28117390  0.24297569  0.59235017     0.12500
H761        H  0.28526633  0.33839753  0.66479912     0.12500
C762        C  0.23678439  0.29045763  0.68076044     0.62100
F763        F  0.32674310  0.25987629  0.55991760    -0.23100
F764        F  0.36468584  0.29871842  0.58198832    -0.20400
F765        F  0.31283053  0.31386281  0.55213035    -0.20100
F766        F  0.24260561  0.26084975  0.69694986    -0.20200
F767        F  0.19939447  0.29311551  0.67060900    -0.20500
F768        F  0.24553333  0.31672633  0.70077036    -0.23200
C769        C  0.23542357  0.03791883  0.57816120    -0.06000
C770        C  0.23976046  0.01501878  0.60252123    -0.00100
C771        C  0.21801001  0.01924451  0.62816072    -0.08600
C772        C  0.19519421  0.04807311  0.62982449    -0.06000
C773        C  0.19322462  0.07281718  0.60665148    -0.00100
C774        C  0.21194203  0.06634284  0.57930647    -0.08500
C775        C  0.20881423  0.08954436  0.55151905     0.61800
H776        H  0.25171151  0.03397706  0.55847306     0.12500
H777        H  0.18071129  0.05249446  0.65039573     0.12500
C778        C  0.23343202  0.50036325  0.66112139     0.62100
F779        F  0.21937635  0.07352417  0.52530269    -0.23100
F780        F  0.23193238  0.11691289  0.55696974    -0.20400
F781        F  0.17218484  0.10013160  0.54545084    -0.20100
F782        F  0.27090235  0.50401602  0.67047514    -0.20200
F783        F  0.22578231  0.46706247  0.65478888    -0.20500
F784        F  0.21283841  0.51002402  0.68531706    -0.23200
C785        C  0.36374826  0.48947262  0.70505113    -0.06000
C786        C  0.33946556  0.46242123  0.69776865    -0.00100
C787        C  0.32282653  0.44575125  0.72187752    -0.08600
C788        C  0.33020960  0.45755201  0.75221495    -0.06000
C789        C  0.35334583  0.48553558  0.75947935    -0.00100
C790        C  0.37111876  0.50144381  0.73532765    -0.08500
C791        C  0.39735139  0.53109971  0.74080055     0.61800
H792        H  0.37637205  0.50201926  0.68640229     0.12500
H793        H  0.32216204  0.94272553  0.76913194     0.12500
C794        C  0.29776619  0.41547905  0.71596751     0.62100
F795        F  0.41354165  0.54057374  0.71423806    -0.23100
F796        F  0.42731893  0.02330209  0.75895308    -0.20400
F797        F  0.37771971  0.55838564  0.75077126    -0.20100
F798        F  0.31588799  0.39177367  0.69930467    -0.20200
F799        F  0.26484654  0.42505401  0.69967216    -0.20500
F800        F  0.28855291  0.40060740  0.74313385    -0.23200
C801        C  0.34728586  0.46558426  0.95213215    -0.06000
C802        C  0.32975714  0.99642133  0.94476301    -0.00100
C803        C  0.31836242  0.01526754  0.96978570    -0.08600
C804        C  0.32570373  0.00388919  0.49930474    -0.06000
C805        C  0.34952875  0.47674484  0.50750273    -0.00100
C806        C  0.35783173  0.45351366  0.98184063    -0.08500
C807        C  0.38195369  0.42210373  0.98483990     0.61800
H808        H  0.35636274  0.45228664  0.93231733     0.12500
H809        H  0.31616930  0.01783746  0.51854911     0.12500
C810        C  0.29615308  0.04721049  0.96487362     0.62100
F811        F  0.39014878  0.40950326  0.95644547    -0.23100
F812        F  0.37280347  0.40261004  0.50055359    -0.20400
F813        F  0.41550935  0.42945781  0.00098465    -0.20100
F814        F  0.26180364  0.03971582  0.94985217    -0.20200
F815        F  0.31566810  0.06908986  0.94744951    -0.20500
F816        F  0.28470792  0.06153624  0.49206085    -0.23200
C817        C  0.21758493  0.33739659  0.49123045    -0.06000
C818        C  0.23203666  0.34152582  0.96348346    -0.00100
C819        C  0.25698320  0.36880222  0.96278261    -0.08600
C820        C  0.26796368  0.38526714  0.99062829    -0.06000
C821        C  0.26147942  0.37628180  0.51721423    -0.00100
C822        C  0.23057094  0.35445398  0.51836888    -0.08500
C823        C  0.21098822  0.34903056  0.54776304     0.61800
H824        H  0.19417806  0.32050888  0.49239773     0.12500
H825        H  0.28695329  0.40626856  0.99012103     0.12500
C826        C  0.27201881  0.38070172  0.93299814     0.62100
F827        F  0.18046064  0.32795212  0.54319014    -0.23100
F828        F  0.19812406  0.37935440  0.55817767    -0.20400
F829        F  0.23552864  0.33479877  0.57016353    -0.20100
F830        F  0.24276222  0.38993556  0.91225789    -0.20200
F831        F  0.29233922  0.35526971  0.92054154    -0.20500
F832        F  0.29531724  0.40806037  0.93752779    -0.23200
C833        C  0.12737581  0.20778902  0.51687649    -0.06000
C834        C  0.16312650  0.21289200  0.53209433    -0.00100
C835        C  0.19119804  0.22856778  0.51577701    -0.08600
C836        C  0.18222359  0.23177797  0.98335192    -0.06000
C837        C  0.14542377  0.23651420  0.97047105    -0.00100
C838        C  0.11834532  0.21871483  0.48641280    -0.08500
C839        C  0.07921936  0.21392311  0.47119440     0.61800
H840        H  0.10608083  0.19583456  0.52940711     0.12500
H841        H  0.20487406  0.23733341  0.96917654     0.12500
C842        C  0.22913735  0.23773924  0.53123737     0.62100
F843        F  0.05609446  0.19770928  0.49045420    -0.23100
F844        F  0.06799496  0.21908189  0.94824770    -0.20400
F845        F  0.06345842  0.24473731  0.46352649    -0.20100
F846        F  0.24853524  0.20912007  0.54070178    -0.20200
F847        F  0.22403642  0.25800537  0.55630578    -0.20500
F848        F  0.25478247  0.23315712  0.00687992    -0.23200
C849        C  0.12981844  0.26631083  0.76474732    -0.06000
C850        C  0.16342033  0.25642216  0.78133160    -0.00100
C851        C  0.18858780  0.23508233  0.76690828    -0.08600
C852        C  0.17852328  0.22346621  0.73696696    -0.06000
C853        C  0.14459063  0.23245605  0.72103682    -0.00100
C854        C  0.12029544  0.25507768  0.73442104    -0.08500
C855        C  0.08479970  0.26713901  0.71656753     0.61800
H856        H  0.11082421  0.28262174  0.77594325     0.12500
H857        H  0.19732756  0.20720956  0.72552924     0.12500
C858        C  0.22549988  0.22384696  0.78299367     0.62100
F859        F  0.06515652  0.28958474  0.73349435    -0.23100
F860        F  0.06186454  0.24014445  0.70893608    -0.20400
F861        F  0.09373112  0.28294451  0.68979613    -0.20100
F862        F  0.21921543  0.20719267  0.80992163    -0.20200
F863        F  0.24769316  0.25151471  0.78947762    -0.20500
F864        F  0.24491864  0.20233605  0.76493982    -0.23200
C865        C  0.22525740  0.43073637  0.82452160    -0.06000
C866        C  0.22956963  0.45345997  0.84900277    -0.00100
C867        C  0.20604838  0.45072125  0.87370528    -0.08600
C868        C  0.18273492  0.42246000  0.87511141    -0.06000
C869        C  0.18262969  0.39705514  0.85276639    -0.00100
C870        C  0.20056236  0.40346377  0.82527283    -0.08500
C871        C  0.19543739  0.38138492  0.79693507     0.61800
H872        H  0.24189920  0.43395295  0.80490284     0.12500
H873        H  0.16798293  0.41823203  0.89559721     0.12500
C874        C  0.20824991  0.47559406  0.90009939     0.62100
F875        F  0.19502632  0.40074720  0.77049771    -0.23100
F876        F  0.16182367  0.36428789  0.79601036    -0.20400
F877        F  0.22471231  0.35876197  0.79686125    -0.20100
F878        F  0.20487906  0.50790435  0.88878354    -0.20200
F879        F  0.26001057  0.96085668  0.91560092    -0.20500
F880        F  0.18002987  0.47065452  0.91965778    -0.23200
C881        C  0.31084358  0.17053991  0.86602072    -0.06000
C882        C  0.29431471  0.13974614  0.87301701    -0.00100
C883        C  0.25824550  0.14031033  0.88519652    -0.08600
C884        C  0.24053283  0.17106548  0.88918596    -0.06000
C885        C  0.25597434  0.20137194  0.88084528    -0.00100
C886        C  0.29239568  0.20156722  0.87016239    -0.08500
C887        C  0.31144965  0.23416074  0.86307122     0.61800
H888        H  0.33816873  0.17009066  0.85702360     0.12500
H889        H  0.21308055  0.17177738  0.89798746     0.12500
C890        C  0.23689213  0.10907491  0.89342115     0.62100
F891        F  0.34597818  0.22883310  0.85162137    -0.23100
F892        F  0.31681027  0.25287895  0.88977854    -0.20400
F893        F  0.28956491  0.25221721  0.84142980    -0.20100
F894        F  0.25578486  0.09359738  0.91815426    -0.20200
F895        F  0.23299552  0.08745552  0.86869672    -0.20500
F896        F  0.20118327  0.11613090  0.90182419    -0.23200
C897        C  0.97288442  0.20013994  0.60576842    -0.06000
C898        C  0.95560048  0.17514809  0.62256992    -0.00100
C899        C  0.97870841  0.15126004  0.63920014    -0.08600
C900        C  0.01800295  0.15366536  0.63855862    -0.06000
C901        C  0.03513482  0.17905623  0.62223157    -0.00100
C902        C  0.01208122  0.20255137  0.60517680    -0.08500
C903        C  0.02845136  0.22966705  0.58574223     0.61800
H904        H  0.95523801  0.21805168  0.59276673     0.12500
H905        H  0.03590562  0.13594226  0.65156466     0.12500
C906        C  0.96240294  0.12381697  0.65824057     0.62100
F907        F  0.00112733  0.24573551  0.56685235    -0.23100
F908        F  0.05385548  0.21568853  0.56704105    -0.20400
F909        F  0.04616481  0.25352198  0.60464989    -0.20100
F910        F  0.94293442  0.10131405  0.63896176    -0.20200
F911        F  0.93859656  0.13764053  0.67842297    -0.20500
F912        F  0.98994589  0.10619347  0.67554134    -0.23200
C913        C  0.50894257  0.01814248  0.90456722    -0.06000
C914        C  0.53312865  0.03786289  0.88828848    -0.00100
C915        C  0.51801006  0.05755122  0.86311264    -0.08600
C916        C  0.47896521  0.05691701  0.85540261    -0.06000
C917        C  0.45495371  0.03659003  0.87132938    -0.00100
C918        C  0.47012106  0.01708930  0.89661671    -0.08500
C919        C  0.44546308  0.99618215  0.91599772     0.61800
H920        H  0.52087203  0.00341371  0.92378363     0.12500
H921        H  0.46697124  0.07140959  0.83605394     0.12500
C922        C  0.54305262  0.07749923  0.84328317     0.62100
F923        F  0.46568501  0.98121915  0.94074367    -0.23100
F924        F  0.42832897  0.97101749  0.89833182    -0.20400
F925        F  0.41864651  0.01651672  0.92763136    -0.20100
F926        F  0.56998647  0.05664623  0.83238816    -0.20200
F927        F  0.56031520  0.10302038  0.86040896    -0.20500
F928        F  0.52304706  0.09177165  0.81807558    -0.23200
C929        C  0.75590576  0.06838102  0.50275718    -0.06000
C930        C  0.73003189  0.08863906  0.98460328    -0.00100
C931        C  0.71352977  0.11735488  0.99761854    -0.08600
C932        C  0.72486477  0.12700761  0.02802613    -0.06000
C933        C  0.75424914  0.10700381  0.54630967    -0.00100
C934        C  0.76921145  0.07788523  0.53282567    -0.08500
C935        C  0.79755378  0.05582270  0.55093582     0.61800
H936        H  0.76592624  0.04562934  0.49258031     0.12500
H937        H  0.71359302  0.14951034  0.03771914     0.12500
C938        C  0.68531936  0.13888836  0.97878918     0.62100
F939        F  0.80512381  0.02679688  0.53512971    -0.23100
F940        F  0.78318722  0.04679969  0.57825404    -0.20400
F941        F  0.83093629  0.07258089  0.55718445    -0.20100
F942        F  0.65253778  0.12143452  0.97192170    -0.20200
F943        F  0.70052136  0.14822870  0.95188285    -0.20500
F944        F  0.67634972  0.16776119  0.99425027    -0.23200
C945        C  0.52500261  0.42743418  0.60481667    -0.06000
C946        C  0.53571961  0.42199323  0.63600864    -0.00100
C947        C  0.50818033  0.41695703  0.65718900    -0.08600
C948        C  0.47021029  0.41754958  0.64629912    -0.06000
C949        C  0.45943996  0.42398860  0.61524402    -0.00100
C950        C  0.48704689  0.42863277  0.59402119    -0.06100
C951        C  0.47626805  0.43431008  0.56011031     0.61800
H952        H  0.54664121  0.43133308  0.58911059     0.12500
H953        H  0.44858308  0.41428349  0.66212331     0.12500
C954        C  0.51898658  0.41293129  0.69131377     0.62100
F955        F  0.50726698  0.43641809  0.54305225    -0.23100
F956        F  0.45625698  0.46385519  0.55625554    -0.20400
F957        F  0.45453055  0.40783927  0.54885276    -0.20100
F958        F  0.53581187  0.44209748  0.70231000    -0.20200
F959        F  0.54367374  0.38642324  0.69611864    -0.20500
F960        F  0.48823304  0.40686541  0.70790447    -0.23200
C961        C  0.71249854  0.31489510  0.60187480    -0.06000
C962        C  0.68830338  0.31636184  0.62602456    -0.00100
C963        C  0.68233331  0.28615143  0.64254887    -0.08600
C964        C  0.70398132  0.25736994  0.63664493    -0.06000
C965        C  0.73145920  0.25779584  0.61528640    -0.00100
C966        C  0.73431243  0.28634203  0.59645237    -0.08500
C967        C  0.76108858  0.28683231  0.57106673     0.61800
H968        H  0.71637239  0.33715947  0.58837022     0.12500
H969        H  0.70153460  0.23499697  0.65035563     0.12500
C970        C  0.65467659  0.28410869  0.66724247     0.62100
F971        F  0.75537090  0.31450416  0.55211637    -0.23100
F972        F  0.75588653  0.25850945  0.55297591    -0.20400
F973        F  0.79759476  0.28757285  0.58385019    -0.20100
F974        F  0.62055861  0.29748962  0.65627284    -0.20200
F975        F  0.66839835  0.30142256  0.69318063    -0.20500
F976        F  0.64854330  0.25134936  0.67591601    -0.23200
C977        C  0.74886243  0.03889286  0.67844029    -0.06000
C978        C  0.75454560  0.01071858  0.66030740    -0.00100
C979        C  0.78693110  0.00931797  0.64343627    -0.08600
C980        C  0.80919129  0.03837303  0.64156869    -0.06000
C981        C  0.80069069  0.06825019  0.65669604    -0.00100
C982        C  0.77251420  0.06702320  0.67831765    -0.08500
C983        C  0.76612294  0.09512853  0.70093314     0.61800
H984        H  0.72506104  0.03901336  0.69237261     0.12500
H985        H  0.83201063  0.03852349  0.62665870     0.12500
C986        C  0.80287008  0.47837640  0.63190667     0.62100
F987        F  0.74582931  0.08420783  0.72485155    -0.23100
F988        F  0.74632090  0.12096647  0.68605990    -0.20400
F989        F  0.80010143  0.10677575  0.71394281    -0.20100
F990        F  0.77689953  0.46661995  0.60934288    -0.20200
F991        F  0.80902203  0.45435659  0.65465981    -0.20500
F992        F  0.83626680  0.48347806  0.61858776    -0.23200
C993        C  0.64177738  0.44235097  0.53643579    -0.06000
C994        C  0.65830283  0.46489943  0.55804172    -0.00100
C995        C  0.66288537  0.49880066  0.54970176    -0.08600
C996        C  0.64975609  0.01024245  0.51960052    -0.06000
C997        C  0.63930018  0.48497163  0.99827933    -0.00100
C998        C  0.63683633  0.45089031  0.00731720    -0.08500
C999        C  0.62082039  0.42419750  0.98523776     0.61800
H1000       H  0.63709805  0.41687393  0.54379612     0.12500
H1001       H  0.65083255  0.03623323  0.51279042     0.12500
C1002       C  0.67344733  0.02771797  0.57359209     0.62100
F1003       F  0.61543791  0.39419146  0.00020722    -0.23100
F1004       F  0.64490067  0.41817600  0.96250697    -0.20400
F1005       F  0.58651845  0.43470705  0.97182838    -0.20100
F1006       F  0.70881392  0.01965161  0.58645541    -0.20200
F1007       F  0.64904156  0.02953369  0.59666816    -0.20500
F1008       F  0.67517841  0.05907578  0.56021965    -0.23200
C1009       C  0.64549721  0.00460448  0.75270797    -0.06000
C1010       C  0.63510570  0.47129915  0.74761142    -0.00100
C1011       C  0.62601075  0.45143742  0.77319405    -0.08600
C1012       C  0.63434248  0.46407771  0.80313315    -0.06000
C1013       C  0.65053782  0.99607028  0.80789695    -0.00100
C1014       C  0.65527527  0.01687618  0.78238090    -0.08500
C1015       C  0.67276351  0.05099492  0.78619168     0.61800
H1016       H  0.65003575  0.02042965  0.73312159     0.12500
H1017       H  0.62804767  0.44921901  0.82293280     0.12500
C1018       C  0.60806795  0.41707883  0.76970486     0.62100
F1019       F  0.66999869  0.06919482  0.75899954    -0.23100
F1020       F  0.71020606  0.04644919  0.79521246    -0.20400
F1021       F  0.65535384  0.06922228  0.80808247    -0.20100
F1022       F  0.63140038  0.39535217  0.75556953    -0.20200
F1023       F  0.57424139  0.41963585  0.75245640    -0.20500
F1024       F  0.60105927  0.40319350  0.79786439    -0.23200
C1025       C  0.97557896  0.26332862  0.85418580    -0.06000
C1026       C  0.95735957  0.28868906  0.86983348    -0.00100
C1027       C  0.97894681  0.31484401  0.88425428    -0.08600
C1028       C  0.01819839  0.31335422  0.88396330    -0.06000
C1029       C  0.03633564  0.28722774  0.86932163    -0.00100
C1030       C  0.01462488  0.26235805  0.85316211    -0.08500
C1031       C  0.03216150  0.23547806  0.83406022     0.61800
H1032       H  0.95880224  0.24403056  0.84242355     0.12500
H1033       H  0.03523373  0.33240169  0.89586721     0.12500
C1034       C  0.96109804  0.34387833  0.90032762     0.62100
F1035       F  0.05127991  0.21251825  0.85317047    -0.23100
F1036       F  0.05656998  0.25002785  0.81487356    -0.20400
F1037       F  0.00546729  0.21821381  0.81565044    -0.20100
F1038       F  0.98758689  0.36420272  0.91574757    -0.20200
F1039       F  0.93779760  0.33191721  0.92171091    -0.20500
F1040       F  0.94067496  0.36339688  0.87877751    -0.23200
C1041       C  0.70813544  0.34738365  0.74940869    -0.06000
C1042       C  0.73064425  0.36867381  0.73272741    -0.00100
C1043       C  0.76732919  0.37617186  0.74448030    -0.08600
C1044       C  0.78015906  0.36221721  0.77299834    -0.06000
C1045       C  0.75767003  0.34076779  0.78956903    -0.00100
C1046       C  0.72120565  0.33294620  0.77760558    -0.08500
C1047       C  0.69687859  0.30876854  0.79397011     0.61800
H1048       H  0.67982918  0.34230882  0.74015218     0.12500
H1049       H  0.80838993  0.36742864  0.78243524     0.12500
C1050       C  0.79231657  0.39914395  0.72738994     0.62100
F1051       F  0.66254934  0.30388651  0.77774677    -0.23100
F1052       F  0.69049887  0.32121932  0.82277216    -0.20400
F1053       F  0.71469488  0.27806736  0.79729188    -0.20100
F1054       F  0.77546880  0.43017970  0.72322438    -0.20200
F1055       F  0.79825430  0.38550693  0.69893531    -0.20500
F1056       F  0.82685838  0.40365660  0.74337449    -0.23200
C1057       C  0.80996090  0.23168154  0.76389830    -0.06000
C1058       C  0.84695903  0.23382792  0.77661003    -0.00100
C1059       C  0.87661136  0.22399096  0.75906931    -0.08600
C1060       C  0.86808827  0.21329063  0.72848991    -0.06000
C1061       C  0.83094411  0.21213490  0.71507377    -0.00100
C1062       C  0.80116051  0.22117378  0.73336793    -0.08500
C1063       C  0.76034071  0.22105433  0.72093282     0.61800
H1064       H  0.78783669  0.23910864  0.77816114     0.12500
H1065       H  0.89066458  0.20588983  0.71472608     0.12500
C1066       C  0.91676711  0.22396392  0.77295706     0.62100
F1067       F  0.73681617  0.23307737  0.74224872    -0.23100
F1068       F  0.74926751  0.18874430  0.71349708    -0.20400
F1069       F  0.75577348  0.24128092  0.69512706    -0.20100
F1070       F  0.91946439  0.20475120  0.79951123    -0.20200
F1071       F  0.92785751  0.25631663  0.78015340    -0.20500
F1072       F  0.94116598  0.21081952  0.75287085    -0.23200
C1073       C  0.80682718  0.23177158  0.97591519    -0.06000
C1074       C  0.83583504  0.25094994  0.96564396    -0.00100
C1075       C  0.86917162  0.25542926  0.98507944    -0.08600
C1076       C  0.87229544  0.23939484  0.51545250    -0.06000
C1077       C  0.84538963  0.21642050  0.52391364    -0.00100
C1078       C  0.81032344  0.21536602  0.00439017    -0.08500
C1079       C  0.77995405  0.19135640  0.01192433     0.61800
H1080       H  0.78209964  0.22787305  0.96038988     0.12500
H1081       H  0.89604470  0.24449998  0.53169724     0.12500
C1082       C  0.90063227  0.27760280  0.97560256     0.62100
F1083       F  0.74840175  0.19439954  0.99167070    -0.23100
F1084       F  0.77132919  0.19011860  0.53850881    -0.20400
F1085       F  0.79383997  0.15930894  0.00941679    -0.20100
F1086       F  0.88619545  0.30808992  0.96526074    -0.20200
F1087       F  0.91880759  0.26240986  0.95237698    -0.20500
F1088       F  0.92685114  0.28365753  0.00001731    -0.23200
C1089       C  0.79662718  0.41762542  0.86997442    -0.06000
C1090       C  0.80250446  0.39344708  0.89335200    -0.00100
C1091       C  0.78753975  0.39980478  0.92230787    -0.08600
C1092       C  0.76191422  0.42645542  0.92473704    -0.06000
C1093       C  0.75303974  0.44837378  0.90012255    -0.00100
C1094       C  0.77273710  0.44539286  0.87314250    -0.08500
C1095       C  0.76711575  0.47046416  0.84704006     0.61800
H1096       H  0.80873141  0.41347812  0.84824237     0.12500
H1097       H  0.74806603  0.42988792  0.94580302     0.12500
C1098       C  0.79769678  0.37857526  0.95069801     0.62100
F1099       F  0.79245886  0.46564344  0.82494946    -0.23100
F1100       F  0.77189284  0.50265202  0.85837383    -0.20400
F1101       F  0.72698734  0.96363831  0.83190577    -0.20100
F1102       F  0.83500247  0.36921409  0.95176967    -0.20200
F1103       F  0.77541763  0.35035418  0.95025036    -0.20500
F1104       F  0.79249012  0.39626167  0.97743052    -0.23200
C1105       C  0.68307894  0.17043706  0.88921558    -0.06000
C1106       C  0.69610955  0.13929672  0.87903967    -0.00100
C1107       C  0.73063673  0.13888104  0.86431509    -0.08600
C1108       C  0.75033689  0.16880031  0.86105906    -0.06000
C1109       C  0.73833593  0.19922974  0.87240563    -0.00100
C1110       C  0.70381056  0.20045209  0.88640025    -0.08500
C1111       C  0.68986787  0.23290799  0.89951875     0.61800
H1112       H  0.65710691  0.17089920  0.90037523     0.12500
H1113       H  0.77653593  0.16864341  0.85019447     0.12500
C1114       C  0.74796845  0.10728943  0.85214932     0.62100
F1115       F  0.65725996  0.22835787  0.91412529    -0.23100
F1116       F  0.68264601  0.25583226  0.87596973    -0.20400
F1117       F  0.71668470  0.24573856  0.92085859    -0.20100
F1118       F  0.72429190  0.09489644  0.82862267    -0.20200
F1119       F  0.75388257  0.08384409  0.87536241    -0.20500
F1120       F  0.78214657  0.11293269  0.84020700    -0.23200
O1121       O  0.86462497  0.77392669  0.31370018    -0.85600
O1122       O  0.80290849  0.81073107  0.31154405    -0.82600
C1123       C  0.77238554  0.82320945  0.31770276     0.97900
O1124       O  0.76177661  0.82225259  0.34501773    -0.82600
O1125       O  0.75459311  0.75630179  0.36575809    -0.85300
C1126       C  0.76408609  0.72726382  0.37451818     1.02400
O1127       O  0.79796176  0.72124415  0.38325006    -0.78000
O1128       O  0.83312784  0.73115014  0.32970424    -0.78200
C1129       C  0.84720645  0.74668769  0.30819335     1.02400
O1130       O  0.89349361  0.81228517  0.36731595    -0.85600
O1131       O  0.82934396  0.85417493  0.35993928    -0.82600
C1132       C  0.81486725  0.85961011  0.38526600     0.97900
O1133       O  0.80729751  0.83524599  0.40173316    -0.82600
O1134       O  0.79912938  0.77176628  0.42258119    -0.85300
C1135       C  0.83125185  0.76169265  0.43365506     1.02400
O1136       O  0.85728231  0.75639532  0.41640237    -0.78100
O1137       O  0.89760436  0.75788205  0.36526311    -0.78200
C1138       C  0.91333839  0.78617813  0.36846185     1.02400
Cr1139     Cr  0.84651872  0.81107691  0.34039082     1.93700
Cr1140     Cr  0.78352236  0.79552793  0.38246008     1.93200
Cr1141     Cr  0.84518135  0.74433853  0.37306933     1.39100
O1142       O  0.82484695  0.78386583  0.36543934    -1.23300
O1143       O  0.64797794  0.97738538  0.19529899    -0.85600
O1144       O  0.69146908  0.99283772  0.14832439    -0.82600
C1145       C  0.72455312  0.98538067  0.15836509     0.97900
O1146       O  0.73275483  0.95545083  0.16489162    -0.82600
O1147       O  0.72263836  0.88911118  0.18179139    -0.85300
C1148       C  0.70846231  0.88681710  0.20776538     1.02400
O1149       O  0.67618921  0.89721941  0.21110343    -0.78000
O1150       O  0.61455849  0.93402248  0.20569475    -0.78200
C1151       C  0.63131683  0.96067841  0.21455720     1.02400
O1152       O  0.58848373  0.95395782  0.15176806    -0.85600
O1153       O  0.63723091  0.96140629  0.10665746    -0.82600
C1154       C  0.66506612  0.95622065  0.09135326     0.97900
O1155       O  0.69543183  0.94372425  0.10379213    -0.82600
O1156       O  0.68481987  0.87835281  0.12088029    -0.85300
C1157       C  0.67378904  0.85296452  0.13463301     1.02400
O1158       O  0.65633250  0.85716343  0.15861468    -0.78100
O1159       O  0.59362483  0.89955770  0.14737292    -0.78200
C1160       C  0.57402289  0.92574988  0.14478706     1.02400
Cr1161     Cr  0.64255480  0.96844782  0.15108963     1.93700
Cr1162     Cr  0.70564178  0.91747010  0.14388917     1.93200
Cr1163     Cr  0.63667414  0.89903116  0.17858597     1.39100
O1164       O  0.66184422  0.92811272  0.15754213    -1.23300
O1165       O  0.61416467  0.52548629  0.45823291    -0.85600
O1166       O  0.67546885  0.56135568  0.46343066    -0.82600
C1167       C  0.70704399  0.57237690  0.45909224     0.97900
O1168       O  0.71999021  0.57051051  0.43250567    -0.82600
O1169       O  0.72846832  0.50504917  0.41101556    -0.85300
C1170       C  0.72103030  0.97453914  0.40136950     1.02400
O1171       O  0.68727416  0.96808736  0.39271957    -0.78000
O1172       O  0.64850975  0.98134526  0.44426159    -0.78200
C1173       C  0.63099082  0.49796270  0.46513935     1.02400
O1174       O  0.59082926  0.56351779  0.40166607    -0.85600
O1175       O  0.65591548  0.60512737  0.41341894    -0.82600
C1176       C  0.67302134  0.60857010  0.38906215     0.97900
O1177       O  0.67687227  0.58328828  0.37296930    -0.82600
O1178       O  0.68657697  0.52069510  0.35225235    -0.85300
C1179       C  0.65481280  0.51012278  0.34085160     1.02400
O1180       O  0.62855477  0.50493240  0.35778224    -0.78100
O1181       O  0.58475874  0.50930186  0.40578075    -0.78200
C1182       C  0.57055020  0.53778543  0.39902538     1.02400
Cr1183     Cr  0.63499422  0.56204606  0.43191713     1.93700
Cr1184     Cr  0.70033502  0.54422324  0.39338961     1.93200
Cr1185     Cr  0.63781477  0.49393607  0.40116219     1.39100
O1186       O  0.65825522  0.53332358  0.40899639    -1.23300
O1187       O  0.83180143  0.72390421  0.07453013    -0.85600
O1188       O  0.79136390  0.74179324  0.12332269    -0.82600
C1189       C  0.75850482  0.73442509  0.11301825     0.97900
O1190       O  0.75042153  0.70436203  0.10691650    -0.82600
O1191       O  0.75958730  0.63570774  0.09575170    -0.85300
C1192       C  0.77421989  0.62763777  0.07098737     1.02400
O1193       O  0.80670466  0.63629708  0.06623039    -0.78000
O1194       O  0.86387672  0.67842313  0.06462146    -0.78200
C1195       C  0.84724890  0.70549242  0.05567522     1.02400
O1196       O  0.89396780  0.70454874  0.11542742    -0.85600
O1197       O  0.84769032  0.71197003  0.16409252    -0.82600
C1198       C  0.82032585  0.70764228  0.18040103     0.97900
O1199       O  0.78912314  0.69689835  0.16822222    -0.82600
O1200       O  0.79906912  0.63126679  0.15634420    -0.85300
C1201       C  0.81106883  0.60460656  0.14567383     1.02400
O1202       O  0.83059377  0.60594826  0.12244341    -0.78100
O1203       O  0.89201689  0.65142017  0.12579288    -0.78200
C1204       C  0.91086089  0.67760430  0.12302804     1.02400
Cr1205     Cr  0.83992915  0.71743940  0.11912604     1.93700
Cr1206     Cr  0.77776383  0.66775077  0.13041130     1.93200
Cr1207     Cr  0.84692362  0.64550100  0.09682556     1.39100
O1208       O  0.82113680  0.67658641  0.11529792    -1.23300
O1209       O  0.12146699  0.77737666  0.43344925    -0.85600
O1210       O  0.17995343  0.81758382  0.43737659    -0.82600
C1211       C  0.21237013  0.82744116  0.43364031     0.97900
O1212       O  0.22545715  0.82501972  0.40722745    -0.82600
O1213       O  0.23557845  0.75892532  0.38943165    -0.85300
C1214       C  0.22713145  0.72965008  0.38106043     1.02400
O1215       O  0.19452398  0.72360677  0.36937241    -0.78000
O1216       O  0.15536925  0.73469919  0.42007468    -0.78200
C1217       C  0.13983730  0.75080791  0.44049435     1.02400
O1218       O  0.09421908  0.81195806  0.37655027    -0.85600
O1219       O  0.15542891  0.85618510  0.38489485    -0.82600
C1220       C  0.17255318  0.86050703  0.36068362     0.97900
O1221       O  0.18509280  0.83571452  0.34722263    -0.82600
O1222       O  0.19594510  0.77187504  0.32878092    -0.85300
C1223       C  0.16481661  0.76105539  0.31624610     1.02400
O1224       O  0.13749823  0.75598634  0.33231634    -0.78100
O1225       O  0.09241409  0.75778807  0.38113334    -0.78200
C1226       C  0.07565209  0.78520582  0.37556059     1.02400
Cr1227     Cr  0.13919382  0.81391830  0.40590616     1.93700
Cr1228     Cr  0.20748243  0.79712273  0.36934042     1.93200
Cr1229     Cr  0.14606496  0.74582220  0.37629177     1.39100
O1230       O  0.16447248  0.78598546  0.38374765    -1.23300
O1231       O  0.34137796  0.98103296  0.05923289    -0.85600
O1232       O  0.30279504  0.99466590  0.11114914    -0.82600
C1233       C  0.26907661  0.98934735  0.10172297     0.97900
O1234       O  0.25975759  0.96081748  0.09179279    -0.82600
O1235       O  0.26506051  0.89604368  0.06986031    -0.85300
C1236       C  0.27807289  0.89405422  0.04338826     1.02400
O1237       O  0.31130795  0.90187670  0.04012255    -0.78000
O1238       O  0.37361044  0.93754665  0.04655983    -0.78200
C1239       C  0.35577071  0.96401880  0.03869172     1.02400
O1240       O  0.40290327  0.95362785  0.09857630    -0.85600
O1241       O  0.35847562  0.95727961  0.14615293    -0.82600
C1242       C  0.33200192  0.95144980  0.16275755     0.97900
O1243       O  0.30007860  0.94176583  0.15091004    -0.82600
O1244       O  0.30436604  0.87828940  0.12882989    -0.85300
C1245       C  0.31409178  0.85358365  0.11348458     1.02400
O1246       O  0.33186621  0.85869687  0.08987494    -0.78100
O1247       O  0.39642101  0.89933388  0.10213957    -0.78200
C1248       C  0.41674536  0.92504925  0.10505221     1.02400
Cr1249     Cr  0.34988523  0.96897389  0.10293521     1.93700
Cr1250     Cr  0.28542401  0.91999309  0.10924699     1.93200
Cr1251     Cr  0.35207145  0.90120611  0.07186463     1.39100
O1252       O  0.32880304  0.92973061  0.09490022    -1.23300
O1253       O  0.15181611  0.73163288  0.16981167    -0.85600
O1254       O  0.19202201  0.74318747  0.11961975    -0.82600
C1255       C  0.22488604  0.73649192  0.13061278     0.97900
O1256       O  0.23309912  0.70711653  0.13909612    -0.82600
O1257       O  0.22449969  0.64094518  0.15819069    -0.85300
C1258       C  0.21157960  0.63899909  0.18466492     1.02400
O1259       O  0.17991081  0.65054818  0.18880036    -0.78000
O1260       O  0.11917497  0.68877887  0.18406237    -0.78200
C1261       C  0.13674746  0.71575853  0.19051032     1.02400
O1262       O  0.08952781  0.70661787  0.13026759    -0.85600
O1263       O  0.13570953  0.70923069  0.08202508    -0.82600
C1264       C  0.16291350  0.70336026  0.06595753     0.97900
O1265       O  0.19380282  0.69239640  0.07893593    -0.82600
O1266       O  0.18524300  0.62783736  0.09902116    -0.85300
C1267       C  0.17404229  0.60341641  0.11396661     1.02400
O1268       O  0.15640689  0.60887034  0.13783750    -0.78100
O1269       O  0.09274047  0.65195483  0.12883520    -0.78200
C1270       C  0.07347905  0.67847545  0.12675351     1.02400
Cr1271     Cr  0.14346649  0.71968904  0.12605853     1.93700
Cr1272     Cr  0.20590614  0.66810472  0.11993972     1.93200
Cr1273     Cr  0.13849329  0.65189583  0.15753389     1.39100
O1274       O  0.16260524  0.67948856  0.13412819    -1.23300
O1275       O  0.37255120  0.52503853  0.30036726    -0.85600
O1276       O  0.31140435  0.56249367  0.29172393    -0.82600
C1277       C  0.27905379  0.57317652  0.29467408     0.97900
O1278       O  0.26495621  0.57110392  0.32074028    -0.82600
O1279       O  0.25439509  0.50552078  0.33990939    -0.85300
C1280       C  0.26101626  0.97614265  0.34690199     1.02400
O1281       O  0.29394769  0.96853122  0.35717883    -0.78000
O1282       O  0.33750448  0.98012593  0.30872303    -0.78200
C1283       C  0.35527881  0.49838109  0.29188685     1.02400
O1284       O  0.39224088  0.56222916  0.35769410    -0.85600
O1285       O  0.32834698  0.60452313  0.34354933    -0.82600
C1286       C  0.31017422  0.60767409  0.36738480     0.97900
O1287       O  0.30360632  0.58208862  0.38229211    -0.82600
O1288       O  0.29105769  0.51944451  0.40113848    -0.85300
C1289       C  0.32193890  0.50859358  0.41406004     1.02400
O1290       O  0.34960923  0.50392107  0.39859251    -0.78100
O1291       O  0.39800357  0.50785712  0.35427964    -0.78200
C1292       C  0.41174977  0.53606274  0.36221841     1.02400
Cr1293     Cr  0.34997509  0.56170309  0.32537876     1.93700
Cr1294     Cr  0.28126731  0.54392104  0.35994332     1.93200
Cr1295     Cr  0.34418610  0.49329793  0.35521073     1.39100
O1296       O  0.32466994  0.53295786  0.34663928    -1.23300
C1297       C  0.28363470  0.60690517  0.24719425    -0.06000
C1298       C  0.26028722  0.59030666  0.26715133    -0.00100
C1299       C  0.22143621  0.58897586  0.25900789    -0.08600
C1300       C  0.20747415  0.60428708  0.23130874    -0.06000
C1301       C  0.23073538  0.62111237  0.21151564    -0.00100
C1302       C  0.26960874  0.62226964  0.21947489    -0.08500
C1303       C  0.29598741  0.64020488  0.19934655     0.61800
H1304       H  0.31341084  0.60794037  0.25360972     0.12500
H1305       H  0.17768667  0.60331994  0.22489005     0.12500
C1306       C  0.19485502  0.57105935  0.27895743     0.62100
F1307       F  0.33244920  0.64022095  0.21243761    -0.23100
F1308       F  0.28469232  0.67313699  0.19508284    -0.20400
F1309       F  0.29582887  0.62441448  0.17103610    -0.20100
F1310       F  0.19408392  0.58734067  0.30694396    -0.20200
F1311       F  0.20654694  0.53832930  0.28385145    -0.20500
F1312       F  0.15864585  0.57039231  0.26534539    -0.23200
C1313       C  0.27953491  0.76256942  0.10818490    -0.06000
C1314       C  0.25406436  0.76290414  0.13112230    -0.00100
C1315       C  0.25477862  0.78982330  0.15212321    -0.08600
C1316       C  0.27785289  0.81750869  0.14723679    -0.06000
C1317       C  0.29990554  0.81947401  0.12167909    -0.00100
C1318       C  0.30254609  0.79040171  0.10290250    -0.08500
C1319       C  0.32826525  0.78861822  0.07676284     0.61800
H1320       H  0.27979924  0.74095472  0.09335112     0.12500
H1321       H  0.27687044  0.83876300  0.16252809     0.12500
C1322       C  0.23082861  0.78933163  0.17938860     0.62100
F1323       F  0.33038565  0.75651515  0.06500120    -0.23100
F1324       F  0.36408720  0.79802692  0.08739448    -0.20400
F1325       F  0.31509839  0.80947189  0.05292838    -0.20100
F1326       F  0.23775109  0.76020167  0.19608274    -0.20200
F1327       F  0.19342967  0.79068150  0.16903506    -0.20500
F1328       F  0.23840935  0.81616261  0.19900616    -0.23200
C1329       C  0.23008837  0.53414370  0.07825323    -0.06000
C1330       C  0.23704023  0.51283217  0.10364793    -0.00100
C1331       C  0.21613871  0.51745833  0.12975337    -0.08600
C1332       C  0.19224580  0.54559158  0.13097046    -0.06000
C1333       C  0.18764022  0.56879341  0.10657868    -0.00100
C1334       C  0.20429757  0.56097672  0.07865464    -0.08500
C1335       C  0.19578812  0.57990817  0.04871279     0.61800
H1336       H  0.24478748  0.52963542  0.05774796     0.12500
H1337       H  0.17914807  0.55086470  0.15207017     0.12500
C1338       C  0.24143615  0.00773491  0.16267757     0.62100
F1339       F  0.19112362  0.55747311  0.02446094    -0.23100
F1340       F  0.22540853  0.60074299  0.04366712    -0.20400
F1341       F  0.16317441  0.59850696  0.04874321    -0.20100
F1342       F  0.27952664  0.01238491  0.16826612    -0.20200
F1343       F  0.23374099  0.97394975  0.15982664    -0.20500
F1344       F  0.22422957  0.01958503  0.18798269    -0.23200
C1345       C  0.35981915  0.98935628  0.20228429    -0.06000
C1346       C  0.33856985  0.96036962  0.19570220    -0.00100
C1347       C  0.32693445  0.94077870  0.22016831    -0.08600
C1348       C  0.33417573  0.95277889  0.25047246    -0.06000
C1349       C  0.35374471  0.98300616  0.25707016    -0.00100
C1350       C  0.36854315  0.00070505  0.23245523    -0.08500
C1351       C  0.39335423  0.03138091  0.23728084     0.61800
H1352       H  0.36921227  0.00364348  0.18318771     0.12500
H1353       H  0.31652304  0.44563131  0.27129070     0.12500
C1354       C  0.30846844  0.90693214  0.21449771     0.62100
F1355       F  0.40786374  0.04162793  0.21021515    -0.23100
F1356       F  0.42274573  0.52674930  0.25918198    -0.20400
F1357       F  0.37294541  0.05779692  0.24795679    -0.20100
F1358       F  0.33075640  0.88706826  0.19729235    -0.20200
F1359       F  0.27376472  0.91094503  0.19874138    -0.20500
F1360       F  0.30347529  0.89027523  0.24180736    -0.23200
C1361       C  0.34875132  0.96762970  0.44987909    -0.06000
C1362       C  0.32673053  0.49752546  0.44662388    -0.00100
C1363       C  0.31517752  0.51605086  0.47181535    -0.08600
C1364       C  0.32321779  0.50024827  0.00204179    -0.06000
C1365       C  0.34958213  0.97455441  0.00582647    -0.00100
C1366       C  0.36060547  0.95695525  0.47975511    -0.08500
C1367       C  0.38662983  0.92682470  0.48325666     0.61800
H1368       H  0.35734771  0.95364928  0.43027943     0.12500
H1369       H  0.31346679  0.51377869  0.02143702     0.12500
C1370       C  0.29173522  0.54735916  0.46719092     0.62100
F1371       F  0.39601174  0.91448187  0.45508948    -0.23100
F1372       F  0.36510600  0.89910342  0.99933762    -0.20400
F1373       F  0.41948067  0.93612940  0.49959207    -0.20100
F1374       F  0.25753079  0.53901980  0.45236925    -0.20200
F1375       F  0.31019842  0.56996199  0.44971235    -0.20500
F1376       F  0.28157662  0.55754630  0.99607699    -0.23200
C1377       C  0.21543221  0.83995021  0.98907212    -0.06000
C1378       C  0.23255384  0.84323391  0.46132141    -0.00100
C1379       C  0.25975201  0.86861987  0.45986359    -0.08600
C1380       C  0.27157000  0.88576914  0.48718128    -0.06000
C1381       C  0.25700012  0.88018319  0.01526445    -0.00100
C1382       C  0.22708159  0.85737381  0.01618966    -0.08500
C1383       C  0.20736940  0.85112762  0.04537541     0.61800
H1384       H  0.19308083  0.82193790  0.99011717     0.12500
H1385       H  0.29194923  0.90559765  0.48596688     0.12500
C1386       C  0.27666434  0.87752346  0.42996127     0.62100
F1387       F  0.17756289  0.82930502  0.04043011    -0.23100
F1388       F  0.19340627  0.88102646  0.05582000    -0.20400
F1389       F  0.23212602  0.83733240  0.06786979    -0.20100
F1390       F  0.24899389  0.88825613  0.40835374    -0.20200
F1391       F  0.29439476  0.84972406  0.41885485    -0.20500
F1392       F  0.30289170  0.90280529  0.43392396    -0.23200
C1393       C  0.12200063  0.72145115  0.01983818    -0.06000
C1394       C  0.15815039  0.71168951  0.03211583    -0.00100
C1395       C  0.18792148  0.71216160  0.01219514    -0.08600
C1396       C  0.18190074  0.73091978  0.48396235    -0.06000
C1397       C  0.14521826  0.73904202  0.47266831    -0.00100
C1398       C  0.11480612  0.73284384  0.98929568    -0.08500
C1399       C  0.07518776  0.74213992  0.97728844     0.61800
H1400       H  0.09907440  0.72089978  0.03459000     0.12500
H1401       H  0.20417757  0.73469118  0.46885547     0.12500
C1402       C  0.22762012  0.70158962  0.02264530     0.62100
F1403       F  0.04921589  0.73314034  0.99775306    -0.23100
F1404       F  0.06486983  0.72999598  0.45335360    -0.20400
F1405       F  0.07257238  0.77633044  0.97270887    -0.20100
F1406       F  0.22785626  0.66883765  0.03285408    -0.20200
F1407       F  0.24169719  0.72241142  0.04604716    -0.20500
F1408       F  0.25528332  0.72265757  0.50349168    -0.23200
C1409       C  0.12403092  0.75654084  0.26781276    -0.06000
C1410       C  0.15991214  0.75191871  0.28300874    -0.00100
C1411       C  0.18782153  0.73497496  0.26738906    -0.08600
C1412       C  0.17864307  0.72345558  0.23718575    -0.06000
C1413       C  0.14270879  0.72760503  0.22253963    -0.00100
C1414       C  0.11489342  0.74441121  0.23779045    -0.08500
C1415       C  0.07588215  0.74923195  0.22230412     0.61800
H1416       H  0.10285199  0.76927198  0.27992815     0.12500
H1417       H  0.19946462  0.71065542  0.22470487     0.12500
C1418       C  0.22662878  0.72787902  0.28257124     0.62100
F1419       F  0.05329228  0.76774365  0.24041561    -0.23100
F1420       F  0.05938422  0.71834468  0.21676965    -0.20400
F1421       F  0.07790136  0.76585546  0.19457263    -0.20100
F1422       F  0.22382267  0.71035593  0.30970845    -0.20200
F1423       F  0.24516826  0.75770658  0.28868955    -0.20500
F1424       F  0.24805230  0.70883598  0.26391013    -0.23200
C1425       C  0.22707599  0.92793932  0.32277826    -0.06000
C1426       C  0.23100260  0.95089295  0.34704683    -0.00100
C1427       C  0.20791604  0.94808029  0.37194804    -0.08600
C1428       C  0.18410834  0.92023713  0.37314995    -0.06000
C1429       C  0.18396512  0.89463289  0.35098332    -0.00100
C1430       C  0.20314667  0.90014954  0.32384165    -0.08500
C1431       C  0.20091718  0.87613297  0.29669949     0.61800
H1432       H  0.24423757  0.93103489  0.30347804     0.12500
H1433       H  0.16881439  0.91648229  0.39340825     0.12500
C1434       C  0.21117190  0.97244588  0.39874896     0.62100
F1435       F  0.20856934  0.89241499  0.26978322    -0.23100
F1436       F  0.16534423  0.86275846  0.29209034    -0.20400
F1437       F  0.22683438  0.85064734  0.30202754    -0.20100
F1438       F  0.20700992  0.00493390  0.38802907    -0.20200
F1439       F  0.25411283  0.46448515  0.41857088    -0.20500
F1440       F  0.18416150  0.96688046  0.41928328    -0.23200
C1441       C  0.30900298  0.67053002  0.36997599    -0.06000
C1442       C  0.29174072  0.63974426  0.37566576    -0.00100
C1443       C  0.25534451  0.64010245  0.38724502    -0.08600
C1444       C  0.23800321  0.67083188  0.39188372    -0.06000
C1445       C  0.25377347  0.70115244  0.38398776    -0.00100
C1446       C  0.29061127  0.70149130  0.37421434    -0.08500
C1447       C  0.30994459  0.73413424  0.36779865     0.61800
H1448       H  0.33665031  0.67010948  0.36155647     0.12500
H1449       H  0.21034859  0.67150727  0.40032243     0.12500
C1450       C  0.23292508  0.60876364  0.39346212     0.62100
F1451       F  0.34561314  0.72892487  0.35852876    -0.23100
F1452       F  0.31295082  0.75333529  0.39433810    -0.20400
F1453       F  0.28951460  0.75154525  0.34473984    -0.20100
F1454       F  0.25048006  0.59135949  0.41768303    -0.20200
F1455       F  0.22932539  0.58873564  0.36764961    -0.20500
F1456       F  0.19702593  0.61595039  0.40134114    -0.23200
C1457       C  0.97032973  0.69234527  0.10086757    -0.06000
C1458       C  0.95258279  0.67647057  0.12465900    -0.00100
C1459       C  0.97485404  0.66013481  0.14854552    -0.08600
C1460       C  0.01423076  0.66064352  0.14787204    -0.06000
C1461       C  0.03186561  0.67680460  0.12420335    -0.00100
C1462       C  0.00959703  0.69253775  0.10005423    -0.08500
C1463       C  0.02723547  0.70826881  0.07295163     0.61800
H1464       H  0.95298288  0.70435060  0.08251910     0.12500
H1465       H  0.03173250  0.64885337  0.16624323     0.12500
C1466       C  0.95725718  0.64321408  0.17509877     0.62100
F1467       F  0.00055192  0.71897679  0.05033071    -0.23100
F1468       F  0.04986073  0.68493836  0.05991710    -0.20400
F1469       F  0.04849701  0.73560116  0.08275460    -0.20100
F1470       F  0.93748474  0.61535080  0.16443775    -0.20200
F1471       F  0.93324232  0.66523632  0.18825174    -0.20500
F1472       F  0.98391848  0.63292346  0.19790115    -0.23200
C1473       C  0.50602576  0.51995104  0.40652460    -0.06000
C1474       C  0.52968983  0.54043297  0.39046433    -0.00100
C1475       C  0.51394909  0.56147381  0.36653116    -0.08600
C1476       C  0.47502463  0.55999367  0.35866871    -0.06000
C1477       C  0.45166333  0.53846962  0.37399038    -0.00100
C1478       C  0.46715432  0.51895728  0.39909404    -0.08500
C1479       C  0.44274971  0.49837025  0.41894478     0.61800
H1480       H  0.51836429  0.50467995  0.42521220     0.12500
H1481       H  0.46258398  0.57504871  0.33987498     0.12500
C1482       C  0.53809686  0.58444696  0.34860896     0.62100
F1483       F  0.46318487  0.48421163  0.44400361    -0.23100
F1484       F  0.42579956  0.47270760  0.40183000    -0.20400
F1485       F  0.41575352  0.51882486  0.43019074    -0.20100
F1486       F  0.56643068  0.56621174  0.33652995    -0.20200
F1487       F  0.55354059  0.60907847  0.36792179    -0.20500
F1488       F  0.51761668  0.60007039  0.32437365    -0.23200
C1489       C  0.75671446  0.57021462  0.00246257    -0.06000
C1490       C  0.72637037  0.58862227  0.48620126    -0.00100
C1491       C  0.70997508  0.61687731  0.50007719    -0.08600
C1492       C  0.72313941  0.62651851  0.53003830    -0.06000
C1493       C  0.75397238  0.60928590  0.04547804    -0.00100
C1494       C  0.77008953  0.58058341  0.03219541    -0.08500
C1495       C  0.80001726  0.55995095  0.05005665     0.61800
H1496       H  0.76758542  0.54772029  0.99242830     0.12500
H1497       H  0.71227325  0.64881720  0.54040183     0.12500
C1498       C  0.67979431  0.63786010  0.48278601     0.62100
F1499       F  0.80772746  0.53051965  0.03493414    -0.23100
F1500       F  0.78752775  0.55164508  0.07826373    -0.20400
F1501       F  0.83297628  0.57776641  0.05444572    -0.20100
F1502       F  0.64748783  0.61941123  0.47694068    -0.20200
F1503       F  0.69263140  0.64851216  0.45532206    -0.20500
F1504       F  0.67066565  0.66597781  0.49928987    -0.23200
C1505       C  0.52263410  0.92144948  0.10368787    -0.06000
C1506       C  0.53366035  0.92344342  0.13521518    -0.00100
C1507       C  0.50615400  0.92395419  0.15695419    -0.08600
C1508       C  0.46806496  0.92318867  0.14628557    -0.06000
C1509       C  0.45703493  0.92223313  0.11472327    -0.00100
C1510       C  0.48453155  0.92124609  0.09301941    -0.06100
C1511       C  0.47340768  0.92126776  0.05876205     0.61800
H1512       H  0.54412588  0.92111883  0.08747432     0.12500
H1513       H  0.44654834  0.92412907  0.16246148     0.12500
C1514       C  0.51721368  0.92515861  0.19123225     0.62100
F1515       F  0.50408799  0.91829764  0.04142819    -0.23100
F1516       F  0.45538474  0.95105808  0.05094332    -0.20400
F1517       F  0.44963755  0.89473365  0.05147101    -0.20100
F1518       F  0.53695830  0.95419075  0.19826808    -0.20200
F1519       F  0.53933630  0.89766625  0.19939345    -0.20500
F1520       F  0.48637674  0.92465684  0.20856464    -0.23200
C1521       C  0.70852919  0.81753936  0.09897694    -0.06000
C1522       C  0.68617886  0.81881003  0.12437901    -0.00100
C1523       C  0.68149314  0.78856922  0.14115824    -0.08600
C1524       C  0.70307892  0.76013420  0.13444491    -0.06000
C1525       C  0.72916519  0.76091023  0.11202155    -0.00100
C1526       C  0.73031655  0.78924388  0.09271802    -0.08500
C1527       C  0.75505687  0.78974396  0.06593901     0.61800
H1528       H  0.71103381  0.83976905  0.08511468     0.12500
H1529       H  0.70196819  0.73780862  0.14843313     0.12500
C1530       C  0.65546451  0.78612976  0.16699001     0.62100
F1531       F  0.74812198  0.81751283  0.04728893    -0.23100
F1532       F  0.74833518  0.76154801  0.04797479    -0.20400
F1533       F  0.79227976  0.79021064  0.07691511    -0.20100
F1534       F  0.62030555  0.79794197  0.15690655    -0.20200
F1535       F  0.66965854  0.80457067  0.19204503    -0.20500
F1536       F  0.65147145  0.75342692  0.17674894    -0.23200
C1537       C  0.74661247  0.54089721  0.17969030    -0.06000
C1538       C  0.75323163  0.51281797  0.16166663    -0.00100
C1539       C  0.78540134  0.51239509  0.14451962    -0.08600
C1540       C  0.80686740  0.54196159  0.14284941    -0.06000
C1541       C  0.79714452  0.57176988  0.15758534    -0.00100
C1542       C  0.76882015  0.56994962  0.17903574    -0.08500
C1543       C  0.76044731  0.59845308  0.20067350     0.61800
H1544       H  0.72281853  0.54036147  0.19361333     0.12500
H1545       H  0.82988213  0.54260693  0.12816532     0.12500
C1546       C  0.79856718  0.98006703  0.12924710     0.62100
F1547       F  0.74018263  0.58746582  0.22458524    -0.23100
F1548       F  0.73961656  0.62298373  0.18475150    -0.20400
F1549       F  0.79348477  0.61189768  0.21379124    -0.20100
F1550       F  0.77073551  0.96983592  0.10754799    -0.20200
F1551       F  0.80546001  0.95501168  0.15091133    -0.20500
F1552       F  0.83093673  0.98488815  0.11438592    -0.23200
C1553       C  0.64976140  0.94271300  0.03662635    -0.06000
C1554       C  0.66149222  0.96657609  0.05879871    -0.00100
C1555       C  0.66319296  0.00075212  0.05044337    -0.08600
C1556       C  0.65179831  0.50897751  0.02022885    -0.06000
C1557       C  0.63883653  0.98622522  0.49714222    -0.00100
C1558       C  0.63793027  0.95187449  0.50563727    -0.08500
C1559       C  0.62576284  0.92476642  0.48254343     0.61800
H1560       H  0.64797848  0.91686546  0.04382941     0.12500
H1561       H  0.65366428  0.53476910  0.01305125     0.12500
C1562       C  0.67627129  0.52696499  0.07379823     0.62100
F1563       F  0.61932637  0.89465971  0.49696586    -0.23100
F1564       F  0.65340402  0.91950307  0.46254920    -0.20400
F1565       F  0.59291628  0.93420111  0.46595457    -0.20100
F1566       F  0.71181443  0.51899072  0.08624851    -0.20200
F1567       F  0.65237578  0.52917042  0.09721238    -0.20500
F1568       F  0.67778755  0.55816533  0.06008912    -0.23200
C1569       C  0.64648328  0.50766905  0.25303106    -0.06000
C1570       C  0.63341193  0.97272973  0.24717010    -0.00100
C1571       C  0.62456592  0.95298343  0.27287872    -0.08600
C1572       C  0.63308212  0.96581369  0.30270691    -0.06000
C1573       C  0.64801452  0.49971704  0.30824879    -0.00100
C1574       C  0.65555124  0.51987362  0.28287942    -0.08500
C1575       C  0.67454051  0.55336537  0.28698428     0.61800
H1576       H  0.65358464  0.52273021  0.23361943     0.12500
H1577       H  0.62680268  0.95113885  0.32262615     0.12500
C1578       C  0.60640650  0.91870936  0.26963535     0.62100
F1579       F  0.67306614  0.57152385  0.25977983    -0.23100
F1580       F  0.71164490  0.54772134  0.29656249    -0.20400
F1581       F  0.65737135  0.57229968  0.30851978    -0.20100
F1582       F  0.62931836  0.89679939  0.25530303    -0.20200
F1583       F  0.57236935  0.92148928  0.25270813    -0.20500
F1584       F  0.59981524  0.90489102  0.29791927    -0.23200
C1585       C  0.97363142  0.76164017  0.35609453    -0.06000
C1586       C  0.95492053  0.78786676  0.37013111    -0.00100
C1587       C  0.97621782  0.81396459  0.38494608    -0.08600
C1588       C  0.01554221  0.81271467  0.38497693    -0.06000
C1589       C  0.03414653  0.78603361  0.37153244    -0.00100
C1590       C  0.01281128  0.75997145  0.35671133    -0.08500
C1591       C  0.03086195  0.73030277  0.34160482     0.61800
H1592       H  0.95716240  0.74190818  0.34474532     0.12500
H1593       H  0.03224621  0.83223348  0.39644777     0.12500
C1594       C  0.95798322  0.84238329  0.40159495     0.62100
F1595       F  0.04766293  0.70950223  0.36405709    -0.23100
F1596       F  0.05733020  0.74136500  0.32246234    -0.20400
F1597       F  0.00491131  0.71150486  0.32386624    -0.20100
F1598       F  0.98415944  0.86191467  0.41830752    -0.20200
F1599       F  0.93394206  0.82960510  0.42202448    -0.20500
F1600       F  0.93823678  0.86282375  0.38042417    -0.23200
C1601       C  0.70494014  0.84681688  0.25034660    -0.06000
C1602       C  0.72690302  0.86987347  0.23500685    -0.00100
C1603       C  0.76177956  0.87999191  0.24901564    -0.08600
C1604       C  0.77413343  0.86567838  0.27751181    -0.06000
C1605       C  0.75264655  0.84191624  0.29230239    -0.00100
C1606       C  0.71736867  0.83243523  0.27880629    -0.08500
C1607       C  0.69341380  0.80713648  0.29422412     0.61800
H1608       H  0.67744272  0.84052117  0.23998984     0.12500
H1609       H  0.80135233  0.87236593  0.28829988     0.12500
C1610       C  0.78515741  0.90635990  0.23445696     0.62100
F1611       F  0.66054212  0.80035828  0.27650083    -0.23100
F1612       F  0.68421272  0.81959078  0.32234719    -0.20400
F1613       F  0.71287311  0.77738988  0.29894866    -0.20100
F1614       F  0.76475365  0.93570438  0.23053701    -0.20200
F1615       F  0.79508671  0.89522393  0.20609901    -0.20500
F1616       F  0.81765922  0.91337525  0.25258182    -0.23200
C1617       C  0.80452813  0.73751868  0.26209215    -0.06000
C1618       C  0.84084615  0.73453582  0.27627247    -0.00100
C1619       C  0.86984371  0.72165470  0.25956597    -0.08600
C1620       C  0.86149130  0.71236271  0.22861808    -0.06000
C1621       C  0.82528312  0.71599840  0.21385766    -0.00100
C1622       C  0.79613743  0.72901311  0.23091092    -0.08500
C1623       C  0.75700823  0.73586869  0.21618468     0.61800
H1624       H  0.78290126  0.74765473  0.27557372     0.12500
H1625       H  0.88352864  0.70238063  0.21554731     0.12500
C1626       C  0.90917664  0.71740783  0.27463512     0.62100
F1627       F  0.73467290  0.75200780  0.23620879    -0.23100
F1628       F  0.73966862  0.70611902  0.20744366    -0.20400
F1629       F  0.75924996  0.75623355  0.19069033    -0.20100
F1630       F  0.90831943  0.69691596  0.30021538    -0.20200
F1631       F  0.92351497  0.74824370  0.28373175    -0.20500
F1632       F  0.93307783  0.70313827  0.25474978    -0.23200
C1633       C  0.80921017  0.72757837  0.47460515    -0.06000
C1634       C  0.83615972  0.74994157  0.46577626    -0.00100
C1635       C  0.86792992  0.75701641  0.48620162    -0.08600
C1636       C  0.87522340  0.73502547  0.01290016    -0.06000
C1637       C  0.84535081  0.71664650  0.02319410    -0.00100
C1638       C  0.81322049  0.71085901  0.50286376    -0.08500
C1639       C  0.78412410  0.68542695  0.50996354     0.61800
H1640       H  0.78556924  0.72207733  0.45833900     0.12500
H1641       H  0.90056328  0.73716144  0.02805053     0.12500
C1642       C  0.89679719  0.78254524  0.47809323     0.62100
F1643       F  0.75379489  0.68554313  0.48823192    -0.23100
F1644       F  0.77014709  0.69631130  0.04116891    -0.20400
F1645       F  0.80044058  0.65410682  0.50974649    -0.20100
F1646       F  0.87907194  0.81202383  0.46868603    -0.20200
F1647       F  0.91689112  0.77037826  0.45459592    -0.20500
F1648       F  0.92180783  0.78972152  0.50307609    -0.23200
C1649       C  0.79050411  0.91495899  0.36753579    -0.06000
C1650       C  0.79971798  0.89344809  0.39254889    -0.00100
C1651       C  0.78730229  0.90206997  0.42194281    -0.08600
C1652       C  0.76256312  0.92944149  0.42419146    -0.06000
C1653       C  0.75051923  0.94868220  0.39836642    -0.00100
C1654       C  0.76598800  0.94228559  0.36986177    -0.08500
C1655       C  0.75526677  0.96319268  0.34147171     0.61800
H1656       H  0.80021012  0.90870175  0.34528715     0.12500
H1657       H  0.75120878  0.93511436  0.44597711     0.12500
C1658       C  0.79875404  0.88215767  0.45087467     0.62100
F1659       F  0.77559682  0.95449693  0.31681842    -0.23100
F1660       F  0.76180595  0.99664551  0.34793229    -0.20400
F1661       F  0.72337704  0.46452771  0.33263253    -0.20100
F1662       F  0.83604411  0.87297379  0.45121834    -0.20200
F1663       F  0.77678384  0.85385076  0.45200011    -0.20500
F1664       F  0.79440463  0.90085629  0.47718368    -0.23200
C1665       C  0.68030687  0.67143669  0.39031123    -0.06000
C1666       C  0.69399031  0.63990729  0.38186651    -0.00100
C1667       C  0.72957458  0.63857984  0.36883280    -0.08600
C1668       C  0.74977311  0.66818317  0.36571270    -0.06000
C1669       C  0.73679290  0.69921274  0.37491667    -0.00100
C1670       C  0.70107039  0.70127222  0.38687182    -0.08500
C1671       C  0.68557470  0.73455035  0.39681927     0.61800
H1672       H  0.65345404  0.67244813  0.40010035     0.12500
H1673       H  0.77683705  0.66738374  0.35624093     0.12500
C1674       C  0.74740302  0.60645254  0.35811008     0.62100
F1675       F  0.65146003  0.73093373  0.40936266    -0.23100
F1676       F  0.68040781  0.75555146  0.37155491    -0.20400
F1677       F  0.71030682  0.74914294  0.41882540    -0.20100
F1678       F  0.72513617  0.59348988  0.33396804    -0.20200
F1679       F  0.75169591  0.58354754  0.38182017    -0.20500
F1680       F  0.78249125  0.61146886  0.34761141    -0.23200
O1681       O  0.86921293  0.77480404  0.81331632    -0.85600
O1682       O  0.80734378  0.81164198  0.81031265    -0.82600
C1683       C  0.77626760  0.82323178  0.81612322     0.97900
O1684       O  0.76489167  0.82131845  0.84321632    -0.82600
O1685       O  0.75725199  0.75507557  0.86445929    -0.85300
C1686       C  0.76692856  0.72601612  0.87320313     1.02400
O1687       O  0.80105101  0.72002926  0.88118746    -0.78000
O1688       O  0.83765330  0.73160568  0.82846306    -0.78200
C1689       C  0.85241369  0.74736132  0.80742078     1.02400
O1690       O  0.89647538  0.81238702  0.86763754    -0.85600
O1691       O  0.83199152  0.85433910  0.85957459    -0.82600
C1692       C  0.81681915  0.85914058  0.88467874     0.97900
O1693       O  0.80948879  0.83432028  0.90063018    -0.82600
O1694       O  0.80142247  0.77064204  0.92134625    -0.85300
C1695       C  0.83333524  0.76006616  0.93255808     1.02400
O1696       O  0.85949553  0.75516213  0.91540480    -0.78100
O1697       O  0.90079141  0.75817435  0.86496097    -0.78200
C1698       C  0.91658527  0.78649186  0.86776836     1.02400
Cr1699     Cr  0.85006545  0.81143341  0.84005106     1.93700
Cr1700     Cr  0.78613795  0.79459014  0.88104888     1.93200
Cr1701     Cr  0.84836254  0.74398487  0.87191712     1.39100
O1702       O  0.82782569  0.78347274  0.86435639    -1.23300
O1703       O  0.64826258  0.97629396  0.69600361    -0.85600
O1704       O  0.69151040  0.99259263  0.64887056    -0.82600
C1705       C  0.72484052  0.98455489  0.65782863     0.97900
O1706       O  0.73289655  0.95447782  0.66357277    -0.82600
O1707       O  0.72329935  0.88851848  0.68014216    -0.85300
C1708       C  0.71037806  0.88685388  0.70665289     1.02400
O1709       O  0.67834214  0.89740797  0.71078683    -0.78000
O1710       O  0.61511833  0.93267337  0.70614222    -0.78200
C1711       C  0.63127164  0.95954135  0.71503139     1.02400
O1712       O  0.58870433  0.95290783  0.65240421    -0.85600
O1713       O  0.63639428  0.96196139  0.60711026    -0.82600
C1714       C  0.66361070  0.95657301  0.59119731     0.97900
O1715       O  0.69406197  0.94368827  0.60297092    -0.82600
O1716       O  0.68316493  0.87844177  0.61975975    -0.85300
C1717       C  0.67415601  0.85277758  0.63410620     1.02400
O1718       O  0.65800666  0.85659403  0.65881255    -0.78100
O1719       O  0.59409664  0.89832135  0.64843232    -0.78200
C1720       C  0.57445825  0.92453689  0.64560672     1.02400
Cr1721     Cr  0.64252528  0.96803306  0.65165955     1.93700
Cr1722     Cr  0.70513971  0.91707424  0.64268194     1.93200
Cr1723     Cr  0.63782338  0.89827185  0.67892784     1.39100
O1724       O  0.66196380  0.92767148  0.65738716    -1.23300
O1725       O  0.61673877  0.52334846  0.95837811    -0.85600
O1726       O  0.67752711  0.56005623  0.96306766    -0.82600
C1727       C  0.70911123  0.57106816  0.95868840     0.97900
O1728       O  0.72229374  0.56868824  0.93221965    -0.82600
O1729       O  0.73111320  0.50294807  0.91180304    -0.85300
C1730       C  0.72312396  0.97441121  0.90120894     1.02400
O1731       O  0.68929181  0.96763692  0.89307169    -0.78000
O1732       O  0.65093539  0.98135223  0.94459059    -0.78200
C1733       C  0.63395457  0.49611762  0.96573303     1.02400
O1734       O  0.59258824  0.56003175  0.90142348    -0.85600
O1735       O  0.65764250  0.60292919  0.91241780    -0.82600
C1736       C  0.67552323  0.60640619  0.88840093     0.97900
O1737       O  0.67990357  0.58095426  0.87253737    -0.82600
O1738       O  0.68921139  0.51752909  0.85263498    -0.85300
C1739       C  0.65782956  0.50601102  0.84123233     1.02400
O1740       O  0.63152626  0.50059183  0.85808840    -0.78100
O1741       O  0.58734120  0.50584204  0.90607067    -0.78200
C1742       C  0.57249493  0.53410021  0.89924461     1.02400
Cr1743     Cr  0.63705834  0.55972675  0.93149795     1.93700
Cr1744     Cr  0.70287836  0.54178514  0.89346980     1.93200
Cr1745     Cr  0.64078992  0.49096423  0.90179331     1.39100
O1746       O  0.66065959  0.53085867  0.90893603    -1.23300
O1747       O  0.83246864  0.72324631  0.57482696    -0.85600
O1748       O  0.79370464  0.74067248  0.62468536    -0.82600
C1749       C  0.76054153  0.73394072  0.61471674     0.97900
O1750       O  0.75168723  0.70399997  0.60869416    -0.82600
O1751       O  0.75963622  0.63538166  0.59659378    -0.85300
C1752       C  0.77345907  0.62741364  0.57146173     1.02400
O1753       O  0.80591113  0.63562458  0.56621339    -0.78000
O1754       O  0.86327373  0.67742616  0.56359444    -0.78200
C1755       C  0.84720463  0.70503388  0.55544607     1.02400
O1756       O  0.89521688  0.70247722  0.61430278    -0.85600
O1757       O  0.85084898  0.70956491  0.66368472    -0.82600
C1758       C  0.82405612  0.70562349  0.68058934     0.97900
O1759       O  0.79242747  0.69544694  0.66890718    -0.82600
O1760       O  0.80164797  0.63013109  0.65630347    -0.85300
C1761       C  0.81171778  0.60327483  0.64476281     1.02400
O1762       O  0.83081882  0.60444357  0.62129551    -0.78100
O1763       O  0.89301441  0.64939931  0.62394562    -0.78200
C1764       C  0.91220500  0.67535710  0.62118968     1.02400
Cr1765     Cr  0.84169163  0.71589826  0.61912872     1.93700
Cr1766     Cr  0.77942460  0.66684258  0.63118803     1.93200
Cr1767     Cr  0.84703568  0.64422806  0.59587947     1.39100
O1768       O  0.82221696  0.67538779  0.61510566    -1.23300
O1769       O  0.12339070  0.77478825  0.93148574    -0.85600
O1770       O  0.18205662  0.81496477  0.93660844    -0.82600
C1771       C  0.21349024  0.82723043  0.93310528     0.97900
O1772       O  0.22690860  0.82582962  0.90676763    -0.82600
O1773       O  0.23926891  0.75993457  0.88858776    -0.85300
C1774       C  0.23146725  0.73050324  0.88020789     1.02400
O1775       O  0.19924428  0.72385132  0.86798457    -0.78000
O1776       O  0.15824745  0.73287409  0.91803152    -0.78200
C1777       C  0.14134127  0.74791050  0.93832679     1.02400
O1778       O  0.09768699  0.81073822  0.87456765    -0.85600
O1779       O  0.15785817  0.85519644  0.88495963    -0.82600
C1780       C  0.17463183  0.86062700  0.86073485     0.97900
O1781       O  0.18759886  0.83647859  0.84653026    -0.82600
O1782       O  0.20046053  0.77281752  0.82779279    -0.85300
C1783       C  0.16954328  0.76194693  0.81498638     1.02400
O1784       O  0.14222094  0.75618571  0.83079302    -0.78100
O1785       O  0.09610000  0.75662392  0.87842237    -0.78200
C1786       C  0.07919707  0.78398359  0.87283103     1.02400
Cr1787     Cr  0.14169053  0.81219275  0.90482675     1.93700
Cr1788     Cr  0.21060485  0.79782345  0.86854841     1.93200
Cr1789     Cr  0.15007552  0.74511563  0.87437601     1.39100
O1790       O  0.16773995  0.78533539  0.88251950    -1.23300
O1791       O  0.34158079  0.98180816  0.55872785    -0.85600
O1792       O  0.30256918  0.99467473  0.60992603    -0.82600
C1793       C  0.26875325  0.98820855  0.60142234     0.97900
O1794       O  0.25969414  0.95900605  0.59297993    -0.82600
O1795       O  0.26770616  0.89381812  0.57101368    -0.85300
C1796       C  0.27966404  0.89279253  0.54402446     1.02400
O1797       O  0.31186428  0.90300646  0.53987507    -0.78000
O1798       O  0.37424736  0.93881099  0.54583599    -0.78200
C1799       C  0.35588759  0.96504409  0.53805896     1.02400
O1800       O  0.40374598  0.95467005  0.59814350    -0.85600
O1801       O  0.35957480  0.95906389  0.64585390    -0.82600
C1802       C  0.33341429  0.95313911  0.66273820     0.97900
O1803       O  0.30186350  0.94239119  0.65114688    -0.82600
O1804       O  0.31073771  0.87918197  0.62967977    -0.85300
C1805       C  0.31782981  0.85422844  0.61365012     1.02400
O1806       O  0.33344670  0.85907087  0.58889857    -0.78100
O1807       O  0.39765963  0.90020064  0.60104282    -0.78200
C1808       C  0.41777109  0.92600250  0.60425266     1.02400
Cr1809     Cr  0.35049370  0.96989312  0.60238522     1.93700
Cr1810     Cr  0.28786922  0.91931290  0.61002858     1.93200
Cr1811     Cr  0.35319115  0.90211251  0.57107721     1.39100
O1812       O  0.33009736  0.93036634  0.59457844    -1.23300
O1813       O  0.15476118  0.73223033  0.66955661    -0.85600
O1814       O  0.19404781  0.74358836  0.61914238    -0.82600
C1815       C  0.22681418  0.73764339  0.63064187     0.97900
O1816       O  0.23552099  0.70844112  0.63946894    -0.82600
O1817       O  0.22748018  0.64208860  0.65910329    -0.85300
C1818       C  0.21404877  0.63959923  0.68539483     1.02400
O1819       O  0.18198298  0.65045710  0.68924656    -0.78000
O1820       O  0.12199819  0.68947665  0.68405702    -0.78200
C1821       C  0.13989636  0.71634845  0.69030011     1.02400
O1822       O  0.09228221  0.70703717  0.63106037    -0.85600
O1823       O  0.13801747  0.70877153  0.58270567    -0.82600
C1824       C  0.16542900  0.70402993  0.56666042     0.97900
O1825       O  0.19650556  0.69308703  0.57937111    -0.82600
O1826       O  0.18851120  0.62843255  0.59960062    -0.85300
C1827       C  0.17705099  0.60417838  0.61461215     1.02400
O1828       O  0.15883135  0.60964785  0.63809852    -0.78100
O1829       O  0.09542467  0.65270949  0.62846147    -0.78200
C1830       C  0.07600553  0.67916722  0.62675154     1.02400
Cr1831     Cr  0.14598499  0.71995518  0.62624291     1.93700
Cr1832     Cr  0.20883401  0.66893077  0.62049774     1.93200
Cr1833     Cr  0.14093660  0.65242551  0.65764127     1.39100
O1834       O  0.16540096  0.68000311  0.63454332    -1.23300
O1835       O  0.37266592  0.52437906  0.80082763    -0.85600
O1836       O  0.31257639  0.56374948  0.79316669    -0.82600
C1837       C  0.28049577  0.57503923  0.79642079     0.97900
O1838       O  0.26653201  0.57328188  0.82260861    -0.82600
O1839       O  0.25337054  0.50801994  0.84103334    -0.85300
C1840       C  0.26475602  0.97575039  0.84757951     1.02400
O1841       O  0.29784161  0.96845089  0.85773281    -0.78000
O1842       O  0.34124159  0.98110745  0.80930485    -0.78200
C1843       C  0.35510405  0.49796330  0.79203478     1.02400
O1844       O  0.39379588  0.55983118  0.85889387    -0.85600
O1845       O  0.33146511  0.60432488  0.84536567    -0.82600
C1846       C  0.31353642  0.60786724  0.86927376     0.97900
O1847       O  0.30635819  0.58234179  0.88410516    -0.82600
O1848       O  0.29119888  0.51936136  0.90197180    -0.85300
C1849       C  0.32148516  0.50687827  0.91452262     1.02400
O1850       O  0.34889635  0.50174190  0.89886351    -0.78100
O1851       O  0.39739781  0.50547618  0.85447670    -0.78200
C1852       C  0.41240328  0.53304083  0.86287642     1.02400
Cr1853     Cr  0.35137295  0.56116846  0.82661943     1.93700
Cr1854     Cr  0.28219540  0.54509205  0.86136271     1.93200
Cr1855     Cr  0.34297546  0.49250071  0.85515425     1.39100
O1856       O  0.32498234  0.53289264  0.84748170    -1.23300
C1857       C  0.28504326  0.61066434  0.75018937    -0.06000
C1858       C  0.26184197  0.59231081  0.76896505    -0.00100
C1859       C  0.22362479  0.58853124  0.75923245    -0.08600
C1860       C  0.21006314  0.60328305  0.73111083    -0.06000
C1861       C  0.23314371  0.62194322  0.71247438    -0.00100
C1862       C  0.27140459  0.62559439  0.72212683    -0.08500
C1863       C  0.29742944  0.64576836  0.70343711     0.61800
H1864       H  0.31438952  0.61329378  0.75780130     0.12500
H1865       H  0.18074373  0.60050793  0.72346795     0.12500
C1866       C  0.19747455  0.56852959  0.77798789     0.62100
F1867       F  0.33315086  0.64774579  0.71789660    -0.23100
F1868       F  0.28371524  0.67799723  0.69932832    -0.20400
F1869       F  0.30006318  0.63086007  0.67498448    -0.20100
F1870       F  0.19412397  0.58406981  0.80606098    -0.20200
F1871       F  0.21148449  0.53651227  0.78290916    -0.20500
F1872       F  0.16201090  0.56588078  0.76315965    -0.23200
C1873       C  0.28460189  0.76244073  0.61198799    -0.06000
C1874       C  0.25514109  0.76480809  0.63142198    -0.00100
C1875       C  0.25087347  0.79449272  0.64844331    -0.08600
C1876       C  0.27497436  0.82149720  0.64417271    -0.06000
C1877       C  0.30184959  0.82090285  0.62203649    -0.00100
C1878       C  0.30762345  0.79020831  0.60632364    -0.08500
C1879       C  0.33649975  0.78673345  0.58273353     0.61800
H1880       H  0.28770158  0.73927245  0.59953146     0.12500
H1881       H  0.27074264  0.84438890  0.65672474     0.12500
C1882       C  0.22036371  0.79797669  0.67062502     0.62100
F1883       F  0.34111998  0.75371599  0.57405834    -0.23100
F1884       F  0.37079431  0.79832451  0.59502803    -0.20400
F1885       F  0.32523234  0.80479832  0.55649308    -0.20100
F1886       F  0.22268073  0.77163997  0.69128128    -0.20200
F1887       F  0.18563285  0.79786706  0.65442234    -0.20500
F1888       F  0.22352064  0.82745697  0.68736046    -0.23200
C1889       C  0.22955533  0.53299611  0.57813995    -0.06000
C1890       C  0.24043219  0.51403469  0.60447145    -0.00100
C1891       C  0.22401451  0.52113671  0.63239639    -0.08600
C1892       C  0.19963175  0.54876235  0.63370665    -0.06000
C1893       C  0.19124385  0.56974179  0.60812425    -0.00100
C1894       C  0.20444711  0.56027439  0.57926956    -0.08500
C1895       C  0.19362240  0.57902327  0.54960033     0.61800
H1896       H  0.24155256  0.52691674  0.55666961     0.12500
H1897       H  0.18939577  0.55570084  0.65562806     0.12500
C1898       C  0.22046994  0.99422813  0.65447057     0.62100
F1899       F  0.19179773  0.55725789  0.52473949    -0.23100
F1900       F  0.22012796  0.60323230  0.54505087    -0.20400
F1901       F  0.15880553  0.59394091  0.55038955    -0.20100
F1902       F  0.25612586  0.99465410  0.66901381    -0.20200
F1903       F  0.21261621  0.96244706  0.64318726    -0.20500
F1904       F  0.19532764  0.00152222  0.67618966    -0.23200
C1905       C  0.36314726  0.99026907  0.70250185    -0.06000
C1906       C  0.33999273  0.96239816  0.69573774    -0.00100
C1907       C  0.32598541  0.94422830  0.72018794    -0.08600
C1908       C  0.33387262  0.95601185  0.75046537    -0.06000
C1909       C  0.35575933  0.98489168  0.75725959    -0.00100
C1910       C  0.37184633  0.00168560  0.73273444    -0.08500
C1911       C  0.39791444  0.03151151  0.73776948     0.61800
H1912       H  0.37403825  0.00369971  0.68351982     0.12500
H1913       H  0.31678462  0.44518711  0.77052599     0.12500
C1914       C  0.30397125  0.91205380  0.71467377     0.62100
F1915       F  0.41317905  0.04118438  0.71084888    -0.23100
F1916       F  0.42605934  0.52282688  0.76260763    -0.20400
F1917       F  0.37844975  0.05862345  0.74826940    -0.20100
F1918       F  0.32433843  0.88987324  0.69810367    -0.20200
F1919       F  0.27008834  0.91876152  0.69845167    -0.20500
F1920       F  0.29656040  0.89659467  0.74204957    -0.23200
C1921       C  0.35018487  0.96675659  0.95051182    -0.06000
C1922       C  0.32570405  0.49475482  0.94686003    -0.00100
C1923       C  0.31293293  0.51213339  0.97225341    -0.08600
C1924       C  0.32651760  0.50517550  0.50180288    -0.06000
C1925       C  0.34861803  0.97543719  0.50520093    -0.00100
C1926       C  0.36057577  0.95528720  0.98043141    -0.08500
C1927       C  0.38379809  0.92331283  0.98393042     0.61800
H1928       H  0.35842217  0.95260071  0.93088916     0.12500
H1929       H  0.31723812  0.51912765  0.52114799     0.12500
C1930       C  0.29027086  0.54391989  0.96820631     0.62100
F1931       F  0.39145586  0.90983705  0.95574176    -0.23100
F1932       F  0.36983233  0.90109861  0.49828035    -0.20400
F1933       F  0.41764029  0.93022958  0.99985000    -0.20100
F1934       F  0.25698863  0.53720917  0.95113742    -0.20200
F1935       F  0.31093947  0.56720030  0.95333007    -0.20500
F1936       F  0.28515073  0.56270710  0.49482885    -0.23200
C1937       C  0.21955667  0.83522593  0.49036416    -0.06000
C1938       C  0.23172578  0.84480021  0.96069723    -0.00100
C1939       C  0.26085943  0.86847987  0.95955046    -0.08600
C1940       C  0.27211556  0.88626372  0.98662316    -0.06000
C1941       C  0.25884859  0.87755398  0.51631521    -0.00100
C1942       C  0.23200883  0.85181414  0.51780586    -0.08500
C1943       C  0.21691554  0.84117799  0.54799529     0.61800
H1944       H  0.19908288  0.81545819  0.49149945     0.12500
H1945       H  0.29404385  0.90470042  0.98572670     0.12500
C1946       C  0.28079538  0.87463978  0.93046085     0.62100
F1947       F  0.19065388  0.81589035  0.54392378    -0.23100
F1948       F  0.19988427  0.86813251  0.56121973    -0.20400
F1949       F  0.24585804  0.82941291  0.56788033    -0.20100
F1950       F  0.25565559  0.88570659  0.90703313    -0.20200
F1951       F  0.29744182  0.84528956  0.92153788    -0.20500
F1952       F  0.30851190  0.89857443  0.93480126    -0.23200
C1953       C  0.12356038  0.72149761  0.52132275    -0.06000
C1954       C  0.16044663  0.71398109  0.53336803    -0.00100
C1955       C  0.19040259  0.71939719  0.51430411    -0.08600
C1956       C  0.18051588  0.72365573  0.98171298    -0.06000
C1957       C  0.14491069  0.73474436  0.97028889    -0.00100
C1958       C  0.11555129  0.73509724  0.49177048    -0.08500
C1959       C  0.07572084  0.74526708  0.48114614     0.61800
H1960       H  0.10069548  0.71749154  0.53556170     0.12500
H1961       H  0.20307267  0.72503990  0.96653303     0.12500
C1962       C  0.23117456  0.71441873  0.52571684     0.62100
F1963       F  0.05049066  0.73627151  0.50224033    -0.23100
F1964       F  0.06590449  0.72585312  0.94967802    -0.20400
F1965       F  0.07380736  0.77964142  0.47752138    -0.20100
F1966       F  0.23755844  0.68127149  0.53367506    -0.20200
F1967       F  0.23978359  0.73473702  0.55098436    -0.20500
F1968       F  0.25141946  0.70340117  0.99906310    -0.23200
C1969       C  0.12801575  0.75672476  0.76739398    -0.06000
C1970       C  0.16454911  0.75350576  0.78173271    -0.00100
C1971       C  0.19284517  0.73819054  0.76535457    -0.08600
C1972       C  0.18303063  0.72583664  0.73560784    -0.06000
C1973       C  0.14638027  0.72826511  0.72203505    -0.00100
C1974       C  0.11844514  0.74423997  0.73768070    -0.08500
C1975       C  0.07897783  0.74806947  0.72282058     0.61800
H1976       H  0.10663027  0.76856634  0.77999265     0.12500
H1977       H  0.20395964  0.71389031  0.72256770     0.12500
C1978       C  0.23278770  0.73390725  0.77913952     0.62100
F1979       F  0.05623111  0.76579472  0.74140033    -0.23100
F1980       F  0.06341374  0.71679714  0.71735840    -0.20400
F1981       F  0.07981222  0.76498714  0.69511650    -0.20100
F1982       F  0.23308005  0.71551379  0.80609052    -0.20200
F1983       F  0.24849638  0.76500860  0.78518215    -0.20500
F1984       F  0.25500918  0.71723717  0.75935786    -0.23200
C1985       C  0.22629986  0.92993122  0.82282934    -0.06000
C1986       C  0.23468925  0.95041361  0.84856657    -0.00100
C1987       C  0.21530989  0.94550697  0.87544023    -0.08600
C1988       C  0.19030297  0.91853075  0.87649525    -0.06000
C1989       C  0.18572137  0.89527594  0.85232878    -0.00100
C1990       C  0.20129501  0.90281582  0.82396626    -0.08500
C1991       C  0.19341253  0.88192427  0.79510440     0.61800
H1992       H  0.24039362  0.93449948  0.80202068     0.12500
H1993       H  0.17781339  0.91317133  0.89786133     0.12500
C1994       C  0.22360310  0.96667218  0.90404662     0.62100
F1995       F  0.19334663  0.90188873  0.76906052    -0.23100
F1996       F  0.15868627  0.86680130  0.79481707    -0.20400
F1997       F  0.22082449  0.85766654  0.79359476    -0.20100
F1998       F  0.21883073  0.00017431  0.89678792    -0.20200
F1999       F  0.24218175  0.47191608  0.91708031    -0.20500
F2000       F  0.20031105  0.95905721  0.92702943    -0.23200
C2001       C  0.31259194  0.67083478  0.86940541    -0.06000
C2002       C  0.29588502  0.64044721  0.87739838    -0.00100
C2003       C  0.26026268  0.64169411  0.89032096    -0.08600
C2004       C  0.24333263  0.67274966  0.89433768    -0.06000
C2005       C  0.25840659  0.70241243  0.88412130    -0.00100
C2006       C  0.29431798  0.70204428  0.87262194    -0.08500
C2007       C  0.31267638  0.73422655  0.86331225     0.61800
H2008       H  0.33954408  0.66986560  0.85978609     0.12500
H2009       H  0.21628590  0.67411575  0.90382093     0.12500
C2010       C  0.23809388  0.61092099  0.89853347     0.62100
F2011       F  0.34707145  0.72837478  0.85182230    -0.23100
F2012       F  0.31812886  0.75488989  0.88876560    -0.20400
F2013       F  0.29012512  0.75047013  0.84079898    -0.20100
F2014       F  0.25680980  0.59472723  0.92289972    -0.20200
F2015       F  0.23308952  0.58967898  0.87356382    -0.20500
F2016       F  0.20280823  0.61876925  0.90745076    -0.23200
C2017       C  0.97234958  0.70164915  0.60973127    -0.06000
C2018       C  0.95431312  0.67446911  0.62287524    -0.00100
C2019       C  0.97683675  0.64778732  0.63584449    -0.08600
C2020       C  0.01625137  0.64996921  0.63567464    -0.06000
C2021       C  0.03409115  0.67762773  0.62319706    -0.00100
C2022       C  0.01153720  0.70374010  0.60946062    -0.08500
C2023       C  0.02828059  0.73364024  0.59392845     0.61800
H2024       H  0.95533707  0.72173774  0.59941031     0.12500
H2025       H  0.03367768  0.63017574  0.64606137     0.12500
C2026       C  0.95990593  0.61736124  0.65038951     0.62100
F2027       F  0.00141018  0.75196608  0.57654643    -0.23100
F2028       F  0.05428829  0.72281206  0.57427896    -0.20400
F2029       F  0.04526385  0.75472877  0.61595399    -0.20100
F2030       F  0.93890921  0.59936850  0.62811074    -0.20200
F2031       F  0.93744762  0.62745589  0.67319803    -0.20500
F2032       F  0.98705490  0.59606146  0.66377905    -0.23200
C2033       C  0.50847249  0.51144455  0.90276571    -0.06000
C2034       C  0.53121802  0.53616821  0.89078409    -0.00100
C2035       C  0.51402053  0.56126210  0.87123101    -0.08600
C2036       C  0.47508824  0.55955337  0.86330281    -0.06000
C2037       C  0.45270054  0.53414010  0.87447416    -0.00100
C2038       C  0.46946853  0.51030403  0.89553823    -0.08500
C2039       C  0.44631431  0.48500048  0.91191093     0.61800
H2040       H  0.52155007  0.49302235  0.91835534     0.12500
H2041       H  0.46180222  0.57787495  0.84771757     0.12500
C2042       C  0.53642323  0.58937069  0.85810556     0.62100
F2043       F  0.46777884  0.46705669  0.93408440    -0.23100
F2044       F  0.42993646  0.46229677  0.89108919    -0.20400
F2045       F  0.41891846  0.50166203  0.92662785    -0.20100
F2046       F  0.56543318  0.57618237  0.84263847    -0.20200
F2047       F  0.55071121  0.60988377  0.88175483    -0.20500
F2048       F  0.51467547  0.60903496  0.83749456    -0.23200
C2049       C  0.75449893  0.57057132  0.50292449    -0.06000
C2050       C  0.72827142  0.58776444  0.98565605    -0.00100
C2051       C  0.71154887  0.61598074  0.99932164    -0.08600
C2052       C  0.72434857  0.62584949  0.02928840    -0.06000
C2053       C  0.75250633  0.60946888  0.54610419    -0.00100
C2054       C  0.76801351  0.58056842  0.53272445    -0.08500
C2055       C  0.79794613  0.55971101  0.55036306     0.61800
H2056       H  0.76513079  0.54806750  0.49273232     0.12500
H2057       H  0.71311296  0.64808516  0.03949571     0.12500
C2058       C  0.68173825  0.63692529  0.98162748     0.62100
F2059       F  0.80364298  0.52940542  0.53598001    -0.23100
F2060       F  0.78689225  0.55303629  0.57943817    -0.20400
F2061       F  0.83160056  0.57665991  0.55287057    -0.20100
F2062       F  0.64945713  0.61855643  0.97536126    -0.20200
F2063       F  0.69533422  0.64735103  0.95442119    -0.20500
F2064       F  0.67236011  0.66517549  0.99783919    -0.23200
C2065       C  0.52379351  0.92667053  0.60399663    -0.06000
C2066       C  0.53433209  0.92230274  0.63538550    -0.00100
C2067       C  0.50655871  0.91725507  0.65641259    -0.08600
C2068       C  0.46860846  0.91749363  0.64524309    -0.06000
C2069       C  0.45803827  0.92299921  0.61397432    -0.00100
C2070       C  0.48588677  0.92704911  0.59287098    -0.06100
C2071       C  0.47539502  0.93131870  0.55873067     0.61800
H2072       H  0.54554301  0.93028080  0.58834336     0.12500
H2073       H  0.44683070  0.91440861  0.66095534     0.12500
C2074       C  0.51708608  0.91277214  0.69056486     0.62100
F2075       F  0.50657738  0.93305063  0.54186305    -0.23100
F2076       F  0.45502176  0.96051915  0.55377461    -0.20400
F2077       F  0.45410427  0.90426683  0.54815405    -0.20100
F2078       F  0.53511687  0.94121608  0.70195252    -0.20200
F2079       F  0.54062562  0.88542898  0.69517993    -0.20500
F2080       F  0.48601774  0.90762451  0.70702920    -0.23200
C2081       C  0.71433094  0.81892879  0.60136449    -0.06000
C2082       C  0.68813577  0.81911442  0.62406435    -0.00100
C2083       C  0.68046093  0.78814889  0.63857826    -0.08600
C2084       C  0.70284546  0.75980424  0.63298997    -0.06000
C2085       C  0.73204730  0.76126360  0.61324741    -0.00100
C2086       C  0.73637341  0.79062044  0.59574916    -0.08500
C2087       C  0.76442155  0.79208142  0.57130779     0.61800
H2088       H  0.71934481  0.84185930  0.58916444     0.12500
H2089       H  0.69925928  0.73683520  0.64560412     0.12500
C2090       C  0.64944203  0.78469663  0.66023192     0.62100
F2091       F  0.76056271  0.82108692  0.55390717    -0.23100
F2092       F  0.75897283  0.76514738  0.55149732    -0.20400
F2093       F  0.80048541  0.79104499  0.58502913    -0.20100
F2094       F  0.61681660  0.79891925  0.64695112    -0.20200
F2095       F  0.65960526  0.80028347  0.68797323    -0.20500
F2096       F  0.64205029  0.75145899  0.66635006    -0.23200
C2097       C  0.74408865  0.53976783  0.67544478    -0.06000
C2098       C  0.75416617  0.51072356  0.66014825    -0.00100
C2099       C  0.78854392  0.51020946  0.64597301    -0.08600
C2100       C  0.80885325  0.54040995  0.64390791    -0.06000
C2101       C  0.79630556  0.57076260  0.65607055    -0.00100
C2102       C  0.76495855  0.56953810  0.67465125    -0.08500
C2103       C  0.75171603  0.59940273  0.69271175     0.61800
H2104       H  0.71846113  0.53929391  0.68710972     0.12500
H2105       H  0.83359706  0.54088010  0.63114862     0.12500
C2106       C  0.79694830  0.97786781  0.62628934     0.62100
F2107       F  0.72531067  0.59033402  0.71279478    -0.23100
F2108       F  0.73542869  0.62310938  0.67269607    -0.20400
F2109       F  0.78160142  0.61321052  0.71031485    -0.20100
F2110       F  0.76791659  0.96926024  0.60503391    -0.20200
F2111       F  0.80359993  0.95192855  0.64707325    -0.20500
F2112       F  0.82881741  0.98207953  0.61063456    -0.23200
C2113       C  0.64790140  0.94290690  0.53651106    -0.06000
C2114       C  0.65922952  0.96693960  0.55865637    -0.00100
C2115       C  0.66041403  0.00112209  0.55025442    -0.08600
C2116       C  0.65156598  0.50888424  0.51947485    -0.06000
C2117       C  0.64110797  0.98620400  0.99736750    -0.00100
C2118       C  0.63980254  0.95183914  0.00579367    -0.08500
C2119       C  0.62708889  0.92489373  0.98269804     0.61800
H2120       H  0.64655424  0.91703113  0.54374039     0.12500
H2121       H  0.65545539  0.53462703  0.51265821     0.12500
C2122       C  0.67953912  0.52421313  0.57278284     0.62100
F2123       F  0.62059961  0.89477047  0.99707717    -0.23100
F2124       F  0.65435723  0.91949194  0.96239512    -0.20400
F2125       F  0.59412402  0.93462911  0.96645870    -0.20100
F2126       F  0.71460746  0.51356131  0.58431089    -0.20200
F2127       F  0.65664916  0.52765372  0.59678158    -0.20500
F2128       F  0.68332246  0.55542864  0.55956104    -0.23200
C2129       C  0.65053480  0.50332527  0.75334107    -0.06000
C2130       C  0.63226709  0.97175201  0.74746247    -0.00100
C2131       C  0.62551174  0.95136290  0.77329552    -0.08600
C2132       C  0.63470527  0.96420353  0.80303030    -0.06000
C2133       C  0.65162352  0.49523904  0.80859499    -0.00100
C2134       C  0.65933371  0.51541319  0.78328729    -0.08500
C2135       C  0.67828102  0.54885253  0.78772407     0.61800
H2136       H  0.65722977  0.51868675  0.73400046     0.12500
H2137       H  0.63035139  0.94899432  0.82308400     0.12500
C2138       C  0.60929925  0.91628272  0.77024839     0.62100
F2139       F  0.67843189  0.56671840  0.76045422    -0.23100
F2140       F  0.71492980  0.54310750  0.79869305    -0.20400
F2141       F  0.65995374  0.56804155  0.80838751    -0.20100
F2142       F  0.63339553  0.89547612  0.75593835    -0.20200
F2143       F  0.57506758  0.91731478  0.75338063    -0.20500
F2144       F  0.60365021  0.90226284  0.79864323    -0.23200
C2145       C  0.97678978  0.75836043  0.86045348    -0.06000
C2146       C  0.95830246  0.78812212  0.86788084    -0.00100
C2147       C  0.97994229  0.81760494  0.87348989    -0.08600
C2148       C  0.01923987  0.81519323  0.87385744    -0.06000
C2149       C  0.03760376  0.78491380  0.86803589    -0.00100
C2150       C  0.01578901  0.75621916  0.85981605    -0.08500
C2151       C  0.03290203  0.72325796  0.85017117     0.61800
H2152       H  0.96034811  0.73614553  0.85511241     0.12500
H2153       H  0.03610876  0.83711959  0.87941254     0.12500
C2154       C  0.96232775  0.85150983  0.87912224     0.62100
F2155       F  0.05061065  0.70749888  0.87561513    -0.23100
F2156       F  0.05829423  0.72904169  0.82834821    -0.20400
F2157       F  0.00609191  0.70152532  0.83716789    -0.20100
F2158       F  0.98895745  0.87621862  0.88495073    -0.20200
F2159       F  0.94117255  0.84977485  0.90437180    -0.20500
F2160       F  0.93992055  0.86112710  0.85328053    -0.23200
C2161       C  0.70910799  0.84520241  0.74790526    -0.06000
C2162       C  0.72973386  0.86989094  0.73344840    -0.00100
C2163       C  0.76371171  0.88144641  0.74808631    -0.08600
C2164       C  0.77668839  0.86675382  0.77633976    -0.06000
C2165       C  0.75629159  0.84164328  0.79049923    -0.00100
C2166       C  0.72186512  0.83082330  0.77629265    -0.08500
C2167       C  0.69933158  0.80383909  0.79080438     0.61800
H2168       H  0.68239169  0.83755461  0.73682984     0.12500
H2169       H  0.80332656  0.87447650  0.78756018     0.12500
C2170       C  0.78523825  0.90979714  0.73448656     0.62100
F2171       F  0.66652488  0.79678507  0.77311303    -0.23100
F2172       F  0.69005675  0.81433029  0.81955999    -0.20400
F2173       F  0.72024552  0.77471840  0.79398716    -0.20100
F2174       F  0.76310591  0.93826171  0.73217869    -0.20200
F2175       F  0.79517289  0.90095328  0.70546800    -0.20500
F2176       F  0.81762694  0.91734683  0.75255221    -0.23200
C2177       C  0.80981371  0.72922389  0.76423119    -0.06000
C2178       C  0.84683577  0.73516000  0.77554782    -0.00100
C2179       C  0.87634457  0.73017739  0.75637139    -0.08600
C2180       C  0.86745944  0.71942239  0.72594619    -0.06000
C2181       C  0.83011544  0.71444831  0.71391773    -0.00100
C2182       C  0.80056836  0.71944756  0.73358870    -0.08500
C2183       C  0.75941264  0.71570559  0.72270445     0.61800
H2184       H  0.78788322  0.73340107  0.77962834     0.12500
H2185       H  0.88997228  0.71535821  0.71113895     0.12500
C2186       C  0.91691985  0.73570749  0.76805219     0.62100
F2187       F  0.73606841  0.72357456  0.74562171    -0.23100
F2188       F  0.75208561  0.68297797  0.71394643    -0.20400
F2189       F  0.75048520  0.73703324  0.69816015    -0.20100
F2190       F  0.92514140  0.71745418  0.79475969    -0.20200
F2191       F  0.92292605  0.76929767  0.77415896    -0.20500
F2192       F  0.94145094  0.72577567  0.74666397    -0.23200
C2193       C  0.80838504  0.73081446  0.97577893    -0.06000
C2194       C  0.83832906  0.74840853  0.96492666    -0.00100
C2195       C  0.87270157  0.75039859  0.98355525    -0.08600
C2196       C  0.87169340  0.74058324  0.51501494    -0.06000
C2197       C  0.84518234  0.71711950  0.52328839    -0.00100
C2198       C  0.81160873  0.71406793  0.00410867    -0.08500
C2199       C  0.78062029  0.69062203  0.01171351     0.61800
H2200       H  0.78302793  0.72823430  0.96074793     0.12500
H2201       H  0.89512932  0.74615123  0.53144265     0.12500
C2202       C  0.90639662  0.76880515  0.97285466     0.62100
F2203       F  0.74901151  0.69417841  0.99156102    -0.23100
F2204       F  0.77085548  0.69216310  0.53833619    -0.20400
F2205       F  0.79370313  0.65829944  0.00917310    -0.20100
F2206       F  0.89573010  0.80010135  0.96167634    -0.20200
F2207       F  0.92186161  0.75067492  0.94987740    -0.20500
F2208       F  0.93388351  0.77318441  0.99666379    -0.23200
C2209       C  0.79496930  0.91617851  0.86859735    -0.06000
C2210       C  0.80127463  0.89275535  0.89261290    -0.00100
C2211       C  0.78616719  0.89967377  0.92142713    -0.08600
C2212       C  0.76157535  0.92715372  0.92362093    -0.06000
C2213       C  0.75262221  0.94846774  0.89857713    -0.00100
C2214       C  0.77094831  0.94393024  0.87109017    -0.08500
C2215       C  0.76358996  0.96725718  0.84378283     0.61800
H2216       H  0.80675704  0.91132305  0.84685608     0.12500
H2217       H  0.74805783  0.93148207  0.94470678     0.12500
C2218       C  0.79479100  0.87801241  0.94981524     0.62100
F2219       F  0.78670205  0.96039179  0.82044869    -0.23100
F2220       F  0.76975094  0.00004238  0.85300347    -0.20400
F2221       F  0.73148712  0.46707032  0.83296035    -0.20100
F2222       F  0.83239760  0.86959903  0.95261607    -0.20200
F2223       F  0.77336548  0.84925258  0.94769535    -0.20500
F2224       F  0.78689702  0.89470135  0.97647407    -0.23200
C2225       C  0.68408699  0.66948333  0.89158716    -0.06000
C2226       C  0.69646931  0.63815733  0.88126909    -0.00100
C2227       C  0.73132224  0.63731816  0.86697891    -0.08600
C2228       C  0.75116193  0.66713808  0.86322589    -0.06000
C2229       C  0.73952246  0.69785262  0.87428837    -0.00100
C2230       C  0.70549183  0.69922203  0.88905653    -0.08500
C2231       C  0.69314189  0.73136506  0.90381040     0.61800
H2232       H  0.65814573  0.67027713  0.90277865     0.12500
H2233       H  0.77718564  0.66667006  0.85211319     0.12500
C2234       C  0.74892634  0.60537044  0.85578624     0.62100
F2235       F  0.66076829  0.72700576  0.91877730    -0.23100
F2236       F  0.68635150  0.75572413  0.88149357    -0.20400
F2237       F  0.72092206  0.74224182  0.92530068    -0.20100
F2238       F  0.72622356  0.59277558  0.83174586    -0.20200
F2239       F  0.75354956  0.58223574  0.87934565    -0.20500
F2240       F  0.78383921  0.61051364  0.84499080    -0.23200
loop_ 
_geom_bond_atom_site_label_1 
_geom_bond_atom_site_label_2 
_geom_bond_distance 
_geom_bond_site_symmetry_2 
_ccdc_geom_bond_type 
O1          Cr19   2.022       .  S
O1            C9   1.269       .  A
O2          Cr19   1.924       .  S
O2            C3   1.248       .  A
C3            O4   1.275       .  A
C3          C485   1.470       .  S
O4          Cr20   2.049       .  S
O5          Cr20   1.994       .  S
O5            C6   1.260       .  A
C6            O7   1.267       .  A
C6          C549   1.498       .  S
O7          Cr21   2.013       .  S
O8          Cr21   1.974       .  S
O8            C9   1.261       .  A
C9          C498   1.474       .  S
O10         Cr19   1.978       .  S
O10          C18   1.260       .  A
O11         Cr19   2.039       .  S
O11          C12   1.271       .  A
C12          O13   1.252       .  A
C12         C530   1.504       .  S
O13         Cr20   1.964       .  S
O14         Cr20   2.029       .  S
O14          C15   1.277       .  A
C15          O16   1.258       .  A
C15         C514   1.474       .  S
O16         Cr21   1.959       .  S
O17         Cr21   2.015       .  S
O17          C18   1.269       .  A
C18         C466   1.489       .  S
Cr19         O22   1.765       .  S
Cr20         O22   1.769       .  S
Cr21         O22   1.757       .  S
O23         Cr41   1.952       .  S
O23          C31   1.258       .  A
O24         Cr41   2.023       .  S
O24          C25   1.267       .  A
C25          O26   1.257       .  A
C25        C1538   1.493       .  S
O26         Cr42   1.985       .  S
O27         Cr42   2.050       .  S
O27          C28   1.277       .  A
C28          O29   1.248       .  A
C28         C482   1.475       .  S
O29         Cr43   1.924       .  S
O30         Cr43   2.026       .  S
O30          C31   1.269       .  A
C31         C450   1.493       .  S
O32         Cr41   2.028       .  S
O32          C40   1.270       .  A
O33         Cr41   1.945       .  S
O33          C34   1.256       .  A
C34          O35   1.277       .  A
C34         C434   1.469       .  S
O35         Cr42   2.042       .  S
O36         Cr42   1.971       .  S
O36          C37   1.257       .  A
C37          O38   1.268       .  A
C37         C402   1.514       .  S
O38         Cr43   2.037       .  S
O39         Cr43   1.973       .  S
O39          C40   1.259       .  A
C40         C386   1.477       .  S
Cr41         O44   1.764       .  S
Cr42         O44   1.769       .  S
Cr43         O44   1.770       .  S
O45         Cr63   2.034       .  S
O45          C53   1.278   1_545  A
O46         Cr63   1.921       .  S
O46          C47   1.244       .  A
C47          O48   1.281       .  A
C47         C370   1.477       .  S
O48         Cr64   2.076       .  S
O49         Cr64   1.985       .  S
O49        C1170   1.257   1_545  A
C50          O51   1.268       .  A
C50        O1169   1.258       .  A
C50         C533   1.488       .  S
O51       Cr1185   2.031       .  S
O52       Cr1185   1.957       .  S
O52        C1173   1.258       .  A
C53        O1172   1.257       .  A
C53        C1557   1.482       .  S
O54         Cr63   1.989       .  S
O54          C62   1.263       .  A
O55         Cr63   2.069       .  S
O55          C56   1.273       .  A
C56          O57   1.245       .  A
C56         C546   1.513       .  S
O57         Cr64   1.957       .  S
O58         Cr64   2.050       .  S
O58          C59   1.281       .  A
C59          O60   1.256       .  A
C59         C453   1.480   1_545  S
O60         Cr65   1.939   1_545  S
O61         Cr65   2.019   1_545  S
O61          C62   1.271       .  A
C62         C354   1.501       .  S
Cr63         O66   1.769       .  S
Cr64         O66   1.757       .  S
Cr65       O1171   2.029       .  S
Cr65       O1172   1.954       .  S
Cr65         O66   1.763   1_565  S
O67         Cr85   1.955       .  S
O67          C75   1.259       .  A
O68         Cr85   2.010       .  S
O68          C69   1.263       .  A
C69          O70   1.261       .  A
C69         C405   1.490       .  S
O70         Cr86   1.998       .  S
O71         Cr86   2.061       .  S
O71          C72   1.278       .  A
C72          O73   1.247       .  A
C72         C373   1.480       .  S
O73         Cr87   1.919       .  S
O74         Cr87   2.050       .  S
O74          C75   1.280       .  A
C75         C517   1.478       .  S
O76         Cr85   2.016       .  S
O76          C84   1.265       .  A
O77         Cr85   1.963       .  S
O77          C78   1.264       .  A
C78          O79   1.277       .  A
C78         C501   1.493       .  S
O79         Cr86   2.038       .  S
O80         Cr86   1.959       .  S
O80          C81   1.248       .  A
C81          O82   1.273       .  A
C81         C421   1.512       .  S
O82         Cr87   2.052       .  S
O83         Cr87   1.983       .  S
O83          C84   1.257       .  A
C84         C338   1.492       .  S
Cr85         O88   1.769       .  S
Cr86         O88   1.767       .  S
Cr87         O88   1.775       .  S
O89        Cr107   2.026       .  S
O89          C97   1.272       .  A
O90        Cr107   1.936       .  S
O90          C91   1.251       .  A
C91          O92   1.278       .  A
C91         C258   1.506       .  S
O92        Cr108   2.059       .  S
O93        Cr108   1.991       .  S
O93          C94   1.258       .  A
C94          O95   1.265       .  A
C94         C325   1.486       .  S
O95        Cr109   1.997       .  S
O96        Cr109   1.965       .  S
O96          C97   1.259       .  A
C97         C277   1.472       .  S
O98        Cr107   1.977       .  S
O98         C106   1.259       .  A
O99        Cr107   2.031       .  S
O99         C100   1.272       .  A
C100        O101   1.253       .  A
C100        C309   1.494       .  S
O101       Cr108   1.959       .  S
O102       Cr108   2.049       .  S
O102        C103   1.280       .  A
C103        O104   1.261       .  A
C103        C290   1.487       .  S
O104       Cr109   1.957       .  S
O105       Cr109   2.013       .  S
O105        C106   1.265       .  A
C106        C469   1.486       .  S
Cr107       O110   1.765       .  S
Cr108       O110   1.770       .  S
Cr109       O110   1.759       .  S
O111       Cr129   1.952       .  S
O111        C119   1.260       .  A
O112       Cr129   2.030       .  S
O112        C113   1.266       .  A
C113        O114   1.258       .  A
C113       C1330   1.494       .  S
O114       Cr130   1.992       .  S
O115       Cr130   2.059       .  S
O115        C116   1.279       .  A
C116        O117   1.250       .  A
C116        C261   1.495       .  S
O117       Cr131   1.928       .  S
O118       Cr131   2.017       .  S
O118        C119   1.269       .  A
C119        C245   1.491       .  S
O120       Cr129   2.022       .  S
O120        C128   1.268       .  A
O121       Cr129   1.942       .  S
O121        C122   1.259       .  A
C122        O123   1.279       .  A
C122        C226   1.485       .  S
O123       Cr130   2.044       .  S
O124       Cr130   1.970       .  S
O124        C125   1.256       .  A
C125        O126   1.266       .  A
C125        C197   1.507       .  S
O126       Cr131   2.030       .  S
O127       Cr131   1.980       .  S
O127        C128   1.260       .  A
C128        C389   1.476       .  S
Cr129       O132   1.768       .  S
Cr130       O132   1.764       .  S
Cr131       O132   1.770       .  S
O133       Cr151   1.952       .  S
O133        C141   1.255       .  A
O134       Cr151   2.021       .  S
O134        C135   1.267       .  A
C135        O136   1.258       .  A
C135        C194   1.487       .  S
O136       Cr152   1.987       .  S
O137       Cr152   2.050       .  S
O137        C138   1.276       .  A
C138        O139   1.252       .  A
C138        C181   1.479       .  S
O139       Cr153   1.942       .  S
O140       Cr153   2.028       .  S
O140        C141   1.271       .  A
C141        C293   1.468       .  S
O142       Cr151   2.026       .  S
O142        C150   1.268       .  A
O143       Cr151   1.959       .  S
O143        C144   1.262       .  A
C144        O145   1.277       .  A
C144        C274   1.501       .  S
O145       Cr152   2.044       .  S
O146       Cr152   1.970       .  S
O146        C147   1.254       .  A
C147        O148   1.272       .  A
C147        C213   1.499       .  S
O148       Cr153   2.036       .  S
O149       Cr153   1.981       .  S
O149        C150   1.261       .  A
C150        C341   1.491       .  S
Cr151       O154   1.769       .  S
Cr152       O154   1.772       .  S
Cr153       O154   1.776       .  S
O155       Cr173   2.028       .  S
O155        C163   1.274   1_545  A
O156       Cr173   1.943       .  S
O156        C157   1.253       .  A
C157        O158   1.278       .  A
C157        C178   1.482       .  S
O158       Cr174   2.059       .  S
O159       Cr174   1.974       .  S
O159       C1280   1.255   1_545  A
C160        O161   1.267       .  A
C160       O1279   1.257       .  A
C160        C306   1.484       .  S
O161      Cr1295   2.028       .  S
O162      Cr1295   1.947       .  S
O162       C1283   1.259       .  A
C163       O1282   1.258       .  A
C163       C1349   1.492       .  S
O164       Cr173   1.996       .  S
O164        C172   1.266       .  A
O165       Cr173   2.059       .  S
O165        C166   1.271       .  A
C166        O167   1.245       .  A
C166        C322   1.501       .  S
O167       Cr174   1.953       .  S
O168       Cr174   2.046       .  S
O168        C169   1.276       .  A
C169        O170   1.253       .  A
C169        C242   1.482   1_545  S
O170       Cr175   1.931   1_545  S
O171       Cr175   2.019   1_545  S
O171        C172   1.267       .  A
C172        C357   1.498       .  S
Cr173       O176   1.770       .  S
Cr174       O176   1.757       .  S
Cr175      O1281   2.021       .  S
Cr175      O1282   1.950       .  S
Cr175       O176   1.759   1_565  S
C177        C178   1.410       .  A
C177        C182   1.409       .  A
C177        H184   1.084       .  S
C178        C179   1.412       .  A
C179        C180   1.410       .  A
C179        C186   1.517       .  S
C180        C181   1.410       .  A
C180        H185   1.084       .  S
C181        C182   1.409       .  A
C182        C183   1.517       .  S
C183        F187   1.384       .  S
C183        F188   1.383       .  S
C183        F189   1.382       .  S
C186        F190   1.382       .  S
C186        F191   1.384       .  S
C186        F192   1.385       .  S
C193        C194   1.403       .  A
C193        C198   1.415       .  A
C193        H200   1.082       .  S
C194        C195   1.411       .  A
C195        C196   1.408       .  A
C195        C202   1.516       .  S
C196        C197   1.413       .  A
C196        H201   1.081       .  S
C197        C198   1.425       .  A
C198        C199   1.516       .  S
C199        F203   1.385       .  S
C199        F204   1.384       .  S
C199        F205   1.382       .  S
C202        F206   1.383       .  S
C202        F207   1.380       .  S
C202        F208   1.385       .  S
C209        C210   1.405       .  A
C209        C214   1.418       .  A
C209        H216   1.083       .  S
C210       C1233   1.493   1_545  S
C210        C211   1.418       .  A
C211        C212   1.408       .  A
C211       C1338   1.516       .  S
C212        C213   1.406       .  A
C212        H217   1.082       .  S
C213        C214   1.424       .  A
C214        C215   1.517       .  S
C215        F219   1.385       .  S
C215        F220   1.382       .  S
C215        F221   1.384       .  S
C218       C1331   1.515       .  S
C218        F222   1.381       .  S
C218        F223   1.383       .  S
C218        F224   1.385       .  S
C225        C226   1.409       .  A
C225        C230   1.406       .  A
C225        H232   1.083       .  S
C226        C227   1.412       .  A
C227        C228   1.405       .  A
C227        C234   1.519       .  S
C228        C229   1.415       .  A
C228       H1353   1.081       .  S
C229       C1283   1.495       .  S
C229        C230   1.421       .  A
C230        C231   1.522       .  S
C231        F235   1.385       .  S
C231        F237   1.383       .  S
C231       F1356   1.383       .  S
H233       C1348   1.082       .  S
C234        F238   1.383       .  S
C234        F239   1.382       .  S
C234        F240   1.385       .  S
F236       C1351   1.384       .  S
C241        C246   1.400       .  A
C241       C1362   1.404       .  A
C241        H248   1.083       .  S
C242        C243   1.409   1_565  A
C242       C1361   1.404       .  A
C243        C804   1.404       .  A
C243        C250   1.508       .  S
C244        C803   1.402       .  A
C244       C1365   1.411   1_546  A
C244        H249   1.082   1_556  S
C245       C1364   1.412       .  A
C245        C806   1.423   1_554  A
C246        C805   1.423       .  A
C246        C247   1.521       .  S
C247        F251   1.385       .  S
C247        F253   1.379       .  S
C247        F812   1.381       .  S
C250        F254   1.382       .  S
C250        F255   1.382       .  S
C250        F816   1.384       .  S
F252        C807   1.381       .  S
F256        C810   1.385       .  S
C257        C262   1.410   1_556  A
C257        C818   1.417       .  A
C257        H264   1.083       .  S
C258        C259   1.415       .  A
C258        C817   1.420       .  A
C259        C260   1.410       .  A
C259        C266   1.520       .  S
C260        C821   1.419       .  A
C260        H265   1.082       .  S
C261        C262   1.414       .  A
C261        C820   1.415   1_554  A
C262        C263   1.518       .  S
C263        F267   1.385       .  S
C263        F268   1.383       .  S
C263        F269   1.381       .  S
C266        F270   1.382       .  S
C266        F271   1.384       .  S
C266        F272   1.385       .  S
C273        C274   1.414       .  A
C273        C278   1.408   1_554  A
C273        H280   1.063       .  S
C274        C275   1.423       .  A
C275        C836   1.411   1_554  A
C275        C282   1.519       .  S
C276        C277   1.400       .  A
C276        C835   1.407       .  A
C276        H281   1.084       .  S
C277        C838   1.409       .  A
C278        C837   1.408       .  A
C278        C279   1.519       .  S
C279        F283   1.384       .  S
C279        F285   1.383       .  S
C279        F844   1.383       .  S
C282        F286   1.382       .  S
C282        F287   1.383       .  S
C282        F848   1.385       .  S
F284        C839   1.383       .  S
F288        C842   1.385       .  S
C289        C290   1.411       .  A
C289        C294   1.409       .  A
C289        H296   1.081       .  S
C290        C291   1.420       .  A
C291        C292   1.404       .  A
C291        C298   1.515       .  S
C292        C293   1.399       .  A
C292        H297   1.081       .  S
C293        C294   1.408       .  A
C294        C295   1.516       .  S
C295        F299   1.384       .  S
C295        F300   1.383       .  S
C295        F301   1.384       .  S
C298        F302   1.380       .  S
C298        F303   1.382       .  S
C298        F304   1.383       .  S
C305        C306   1.400       .  A
C305        C310   1.410       .  A
C305        H312   1.086       .  S
C306        C307   1.419       .  A
C307        C308   1.407       .  A
C307        C314   1.514       .  S
C308        C309   1.403       .  A
C308        H313   1.084       .  S
C309        C310   1.425       .  A
C310        C311   1.516       .  S
C311        F315   1.384       .  S
C311        F316   1.384       .  S
C311        F317   1.383       .  S
C314        F318   1.383       .  S
C314        F320   1.385       .  S
C314       F1439   1.380       .  S
F319       C1434   1.381       .  S
C321        C322   1.410       .  A
C321        C326   1.420       .  A
C321        H328   1.082       .  S
C322        C323   1.434       .  A
C323        C324   1.397       .  A
C323        C330   1.524       .  S
C324        C325   1.391       .  A
C324        H329   1.083       .  S
C325        C326   1.419       .  A
C326        C327   1.515       .  S
C327        F331   1.385       .  S
C327        F332   1.382       .  S
C327        F333   1.380       .  S
C330        F334   1.372       .  S
C330        F335   1.378       .  S
C330        F336   1.385       .  S
C337        C338   1.407       .  A
C337        C342   1.408   1_655  A
C337        H344   1.083       .  S
C338        C339   1.419       .  A
C339        C340   1.414   1_655  A
C339        C346   1.518       .  S
C340        C341   1.407       .  A
C340        H345   1.083       .  S
C341        C342   1.416       .  A
C342        C343   1.516       .  S
C343        F347   1.385   1_455  S
C343        F348   1.381       .  S
C343        F349   1.382       .  S
C346        F350   1.383       .  S
C346        F351   1.384       .  S
C346        F352   1.384       .  S
C353        C354   1.406       .  A
C353        C358   1.408       .  A
C353        H360   1.082   1_545  S
C354        C355   1.423       .  A
C355        C356   1.415       .  A
C355        C362   1.519       .  S
C356        C357   1.407       .  A
C356        H361   1.082       .  S
C357        C358   1.423       .  A
C358        C359   1.522   1_545  S
C359        F363   1.385       .  S
C359        F364   1.382       .  S
C359        F365   1.380       .  S
C362        F366   1.383       .  S
C362        F367   1.383       .  S
C362        F368   1.385       .  S
C369        C374   1.410       .  A
C369        C930   1.397   1_554  A
C369        H376   1.083   1_554  S
C370        C371   1.425       .  A
C370        C929   1.397       .  A
C371        C372   1.407       .  A
C371        C378   1.519       .  S
C372        C933   1.395       .  A
C372        H377   1.083       .  S
C373        C374   1.426       .  A
C373        C932   1.394       .  A
C374        C375   1.517       .  S
C375        F379   1.385       .  S
C375        F380   1.379       .  S
C375        F381   1.382       .  S
C378        F382   1.381       .  S
C378        F383   1.381       .  S
C378        F384   1.385       .  S
C385        C386   1.398       .  A
C385        C390   1.408       .  A
C385        H392   1.083       .  S
C386        C387   1.417       .  A
C387        C388   1.406       .  A
C387        C394   1.510       .  S
C388        C389   1.398       .  A
C388        H393   1.083       .  S
C389        C390   1.417       .  A
C390        C391   1.510       .  S
C391        F395   1.385       .  S
C391        F396   1.381       .  S
C391        F397   1.384       .  S
C394        F398   1.382       .  S
C394        F399   1.383       .  S
C394        F400   1.385       .  S
C401        C402   1.414       .  A
C401        C406   1.411       .  A
C401        H408   1.081       .  S
C402        C403   1.430       .  A
C403        C404   1.417       .  A
C403        C410   1.519       .  S
C404        C405   1.403       .  A
C404        H409   1.082       .  S
C405        C406   1.412       .  A
C406        C407   1.518       .  S
C407        F411   1.384       .  S
C407        F412   1.382       .  S
C407        F413   1.382       .  S
C410        F414   1.383       .  S
C410        F415   1.382       .  S
C410        F416   1.385       .  S
C417        C418   1.398       .  A
C417        C422   1.411       .  A
C417        H424   1.083       .  S
C418       C1145   1.494   1_545  S
C418        C419   1.419       .  A
C419        C420   1.418       .  A
C419       C1546   1.517   1_545  S
C420        C421   1.408       .  A
C420        H425   1.082       .  S
C421        C422   1.434       .  A
C422        C423   1.522       .  S
C423        F427   1.384       .  S
C423        F428   1.383       .  S
C423        F429   1.384       .  S
C426       C1539   1.518       .  S
C426        F430   1.381       .  S
C426        F431   1.382       .  S
C426        F432   1.385       .  S
C433        C434   1.399       .  A
C433        C998   1.409       .  A
C433        H440   1.082       .  S
C434        C435   1.416       .  A
C435       C1556   1.405       .  A
C435       C1562   1.519       .  S
C436       C1555   1.406       .  A
C436       C2117   1.404   1_544  A
C436        H441   1.081       .  S
C437       C1173   1.479       .  S
C437        C438   1.420       .  A
C437       C2116   1.402       .  A
C438        C993   1.410       .  A
C438        C439   1.518       .  S
C439        F443   1.385       .  S
C439        F444   1.382       .  S
C439        F445   1.384       .  S
C442       C1555   1.519       .  S
C442        F446   1.382       .  S
C442        F447   1.382       .  S
C442        F448   1.385       .  S
C449        C454   1.401       .  A
C449       C1570   1.412   1_545  A
C449        H456   1.083       .  S
C450        C451   1.423       .  A
C450       C1569   1.411       .  A
C451        C452   1.404       .  A
C451        C458   1.518       .  S
C452       C1573   1.404       .  A
C452        H457   1.084       .  S
C453        C454   1.407   1_565  A
C453       C1572   1.405       .  A
C454        C455   1.508       .  S
C455        F459   1.384       .  S
C455        F460   1.381       .  S
C455        F461   1.383       .  S
C458        F462   1.381       .  S
C458        F463   1.378       .  S
C458        F464   1.385       .  S
C465        C466   1.407       .  A
C465        C470   1.404   1_655  A
C465        H472   1.083       .  S
C466        C467   1.419       .  A
C467        C468   1.410   1_655  A
C467        C474   1.519       .  S
C468        C469   1.407       .  A
C468        H473   1.083       .  S
C469        C470   1.418       .  A
C470        C471   1.520       .  S
C471        F475   1.383       .  S
C471        F476   1.383       .  S
C471        F477   1.385       .  S
C474        F478   1.385       .  S
C474        F479   1.382       .  S
C474        F480   1.383       .  S
C481        C482   1.415       .  A
C481        C486   1.404       .  A
C481        H488   1.083       .  S
C482        C483   1.408       .  A
C483        C484   1.403       .  A
C483        C490   1.518       .  S
C484        C485   1.412       .  A
C484        H489   1.084       .  S
C485        C486   1.405       .  A
C486        C487   1.517       .  S
C487        F491   1.384       .  S
C487        F492   1.383       .  S
C487        F493   1.383       .  S
C490        F494   1.383       .  S
C490        F495   1.383       .  S
C490        F496   1.385       .  S
C497        C498   1.401       .  A
C497        C502   1.407       .  A
C497        H504   1.083       .  S
C498        C499   1.410       .  A
C499        C500   1.408       .  A
C499        C506   1.517       .  S
C500        C501   1.412       .  A
C500        H505   1.082       .  S
C501        C502   1.423       .  A
C502        C503   1.518       .  S
C503        F507   1.385       .  S
C503        F508   1.382       .  S
C503        F509   1.382       .  S
C506        F510   1.383       .  S
C506        F511   1.383       .  S
C506        F512   1.384       .  S
C513        C514   1.394       .  A
C513        C518   1.398       .  A
C513        H520   1.084       .  S
C514        C515   1.419       .  A
C515       C1076   1.412       .  A
C515        C522   1.516       .  S
C516        C517   1.402       .  A
C516       C1075   1.413   1_554  A
C516        H521   1.083       .  S
C517       C1078   1.417       .  A
C518       C1077   1.417       .  A
C518        C519   1.507       .  S
C519        F523   1.384       .  S
C519        F525   1.380       .  S
C519       F1084   1.381       .  S
C522        F526   1.383       .  S
C522        F527   1.382       .  S
C522        F528   1.384       .  S
F524       C1079   1.381       .  S
C529        C530   1.408       .  A
C529        C534   1.411       .  A
C529        H536   1.082       .  S
C530        C531   1.429       .  A
C531        C532   1.413       .  A
C531        C538   1.518       .  S
C532        C533   1.399       .  A
C532        H537   1.083       .  S
C533        C534   1.418       .  A
C534        C535   1.517       .  S
C535        F539   1.385       .  S
C535        F540   1.383       .  S
C535       F1661   1.381       .  S
C538        F542   1.384       .  S
C538        F543   1.383       .  S
C538        F544   1.385       .  S
F541       C1655   1.379       .  S
C545        C546   1.410       .  A
C545        C550   1.424       .  A
C545        H552   1.082       .  S
C546        C547   1.435       .  A
C547        C548   1.403       .  A
C547        C554   1.520       .  S
C548        C549   1.393       .  A
C548        H553   1.082       .  S
C549        C550   1.422       .  A
C550        C551   1.515       .  S
C551        F555   1.385       .  S
C551        F556   1.383       .  S
C551        F557   1.383       .  S
C554        F558   1.374       .  S
C554        F559   1.380       .  S
C554        F560   1.385       .  S
O561       Cr579   2.027       .  S
O561        C569   1.271       .  A
O562       Cr579   1.920       .  S
O562        C563   1.246       .  A
C563        O564   1.276       .  A
C563       C1045   1.468       .  S
O564       Cr580   2.051       .  S
O565       Cr580   1.990       .  S
O565        C566   1.259       .  A
C566        O567   1.268       .  A
C566       C1109   1.493       .  S
O567       Cr581   2.015       .  S
O568       Cr581   1.966       .  S
O568        C569   1.260       .  A
C569       C1058   1.472       .  S
O570       Cr579   1.972       .  S
O570        C578   1.259       .  A
O571       Cr579   2.048       .  S
O571        C572   1.273       .  A
C572        O573   1.250       .  A
C572       C1090   1.503       .  S
O573       Cr580   1.958       .  S
O574       Cr580   2.029       .  S
O574        C575   1.278       .  A
C575        O576   1.257       .  A
C575       C1074   1.476       .  S
O576       Cr581   1.956       .  S
O577       Cr581   2.014       .  S
O577        C578   1.269       .  A
C578       C1026   1.487       .  S
Cr579       O582   1.765       .  S
Cr580       O582   1.765       .  S
Cr581       O582   1.757       .  S
O583       Cr601   1.959       .  S
O583        C591   1.259       .  A
O584       Cr601   2.011       .  S
O584        C585   1.265       .  A
C585        O586   1.257       .  A
C585       C2098   1.494       .  S
O586       Cr602   1.989       .  S
O587       Cr602   2.047       .  S
O587        C588   1.276       .  A
C588        O589   1.248       .  A
C588       C1042   1.469       .  S
O589       Cr603   1.923       .  S
O590       Cr603   2.023       .  S
O590        C591   1.267       .  A
C591       C1010   1.494       .  S
O592       Cr601   2.017       .  S
O592        C600   1.268       .  A
O593       Cr601   1.948       .  S
O593        C594   1.256       .  A
C594        O595   1.277       .  A
C594        C994   1.471       .  S
O595       Cr602   2.042       .  S
O596       Cr602   1.979       .  S
O596        C597   1.259       .  A
C597        O598   1.267       .  A
C597        C962   1.515       .  S
O598       Cr603   2.036       .  S
O599       Cr603   1.973       .  S
O599        C600   1.261       .  A
C600        C946   1.470       .  S
Cr601       O604   1.763       .  S
Cr602       O604   1.772       .  S
Cr603       O604   1.769       .  S
O605       Cr623   2.037       .  S
O605        C613   1.278   1_545  A
O606       Cr623   1.921       .  S
O606        C607   1.244       .  A
C607        O608   1.284       .  A
C607        C930   1.479       .  S
O608       Cr624   2.082       .  S
O609       Cr624   1.985       .  S
O609       C1730   1.258   1_545  A
C610       O1729   1.257       .  A
C610        O611   1.268       .  A
C610       C1093   1.490       .  S
O611      Cr1745   2.033       .  S
O612      Cr1745   1.956       .  S
O612       C1733   1.257       .  A
C613       O1732   1.256       .  A
C613       C2117   1.482       .  S
O614       Cr623   1.986       .  S
O614        C622   1.262       .  A
O615       Cr623   2.069       .  S
O615        C616   1.272       .  A
C616        O617   1.244       .  A
C616       C1106   1.515       .  S
O617       Cr624   1.957       .  S
O618       Cr624   2.053       .  S
O618        C619   1.281       .  A
C619        O620   1.255       .  A
C619       C1013   1.479   1_545  S
O620       Cr625   1.936   1_545  S
O621       Cr625   2.023   1_545  S
O621        C622   1.270       .  A
C622        C914   1.490       .  S
Cr623       O626   1.768       .  S
Cr624       O626   1.757       .  S
Cr625      O1731   2.028       .  S
Cr625      O1732   1.951       .  S
Cr625       O626   1.764   1_565  S
O627       Cr645   1.957       .  S
O627        C635   1.260       .  A
O628       Cr645   2.014       .  S
O628        C629   1.264       .  A
C629        O630   1.262       .  A
C629        C965   1.494       .  S
O630       Cr646   2.000       .  S
O631       Cr646   2.053       .  S
O631        C632   1.276       .  A
C632        O633   1.248       .  A
C632        C933   1.479       .  S
O633       Cr647   1.921       .  S
O634       Cr647   2.048       .  S
O634        C635   1.279       .  A
C635       C1077   1.478       .  S
O636       Cr645   2.017       .  S
O636        C644   1.265       .  A
O637       Cr645   1.966       .  S
O637        C638   1.264       .  A
C638        O639   1.275       .  A
C638       C1061   1.493       .  S
O639       Cr646   2.027       .  S
O640       Cr646   1.955       .  S
O640        C641   1.247       .  A
C641        O642   1.273       .  A
C641        C981   1.509       .  S
O642       Cr647   2.049       .  S
O643       Cr647   1.987       .  S
O643        C644   1.258       .  A
C644        C898   1.502       .  S
Cr645       O648   1.769       .  S
Cr646       O648   1.768       .  S
Cr647       O648   1.777       .  S
O649       Cr667   2.025       .  S
O649        C657   1.272       .  A
O650       Cr667   1.930       .  S
O650        C651   1.249       .  A
C651        O652   1.279       .  A
C651        C818   1.497       .  S
O652       Cr668   2.056       .  S
O653       Cr668   1.995       .  S
O653        C654   1.257       .  A
C654        O655   1.262       .  A
C654        C885   1.487       .  S
O655       Cr669   1.992       .  S
O656       Cr669   1.968       .  S
O656        C657   1.260       .  A
C657        C837   1.479       .  S
O658       Cr667   1.975       .  S
O658        C666   1.258       .  A
O659       Cr667   2.029       .  S
O659        C660   1.270       .  A
C660        O661   1.254       .  A
C660        C869   1.497       .  S
O661       Cr668   1.961       .  S
O662       Cr668   2.053       .  S
O662        C663   1.281       .  A
C663        O664   1.262       .  A
C663        C850   1.486       .  S
O664       Cr669   1.959       .  S
O665       Cr669   2.010       .  S
O665        C666   1.263       .  A
C666       C1029   1.482       .  S
Cr667       O670   1.768       .  S
Cr668       O670   1.768       .  S
Cr669       O670   1.761       .  S
O671       Cr689   1.960       .  S
O671        C679   1.260       .  A
O672       Cr689   2.024       .  S
O672        C673   1.265       .  A
C673        O674   1.258       .  A
C673       C1890   1.489       .  S
O674       Cr690   1.990       .  S
O675       Cr690   2.063       .  S
O675        C676   1.280       .  A
C676        O677   1.252       .  A
C676        C821   1.506       .  S
O677       Cr691   1.936       .  S
O678       Cr691   2.012       .  S
O678        C679   1.267       .  A
C679        C805   1.490       .  S
O680       Cr689   2.021       .  S
O680        C688   1.268       .  A
O681       Cr689   1.945       .  S
O681        C682   1.258       .  A
C682        O683   1.280       .  A
C682        C786   1.490       .  S
O683       Cr690   2.048       .  S
O684       Cr690   1.965       .  S
O684        C685   1.255       .  A
C685        O686   1.265       .  A
C685        C757   1.505       .  S
O686       Cr691   2.028       .  S
O687       Cr691   1.977       .  S
O687        C688   1.260       .  A
C688        C949   1.473       .  S
Cr689       O692   1.766       .  S
Cr690       O692   1.760       .  S
Cr691       O692   1.765       .  S
O693       Cr711   1.954       .  S
O693        C701   1.256       .  A
O694       Cr711   2.021       .  S
O694        C695   1.267       .  A
C695        O696   1.256       .  A
C695        C754   1.481       .  S
O696       Cr712   1.981       .  S
O697       Cr712   2.054       .  S
O697        C698   1.276       .  A
C698        O699   1.250       .  A
C698        C741   1.488       .  S
O699       Cr713   1.937       .  S
O700       Cr713   2.030       .  S
O700        C701   1.273       .  A
C701        C853   1.469       .  S
O702       Cr711   2.023       .  S
O702        C710   1.268       .  A
O703       Cr711   1.957       .  S
O703        C704   1.261       .  A
C704        O705   1.278       .  A
C704        C834   1.492       .  S
O705       Cr712   2.047       .  S
O706       Cr712   1.959       .  S
O706        C707   1.252       .  A
C707        O708   1.276       .  A
C707        C773   1.511       .  S
O708       Cr713   2.055       .  S
O709       Cr713   1.983       .  S
O709        C710   1.263       .  A
C710        C901   1.496       .  S
Cr711       O714   1.767       .  S
Cr712       O714   1.766       .  S
Cr713       O714   1.770       .  S
O715       Cr733   2.028       .  S
O715        C723   1.273   1_545  A
O716       Cr733   1.941       .  S
O716        C717   1.252       .  A
C717        O718   1.277       .  A
C717        C738   1.491       .  S
O718       Cr734   2.061       .  S
O719       Cr734   1.981       .  S
O719       C1840   1.257   1_545  A
C720       O1839   1.257       .  A
C720        O721   1.267       .  A
C720        C866   1.483       .  S
O721      Cr1855   2.025       .  S
O722      Cr1855   1.950       .  S
O722       C1843   1.259       .  A
C723       O1842   1.258       .  A
C723       C1909   1.494       .  S
O724       Cr733   1.992       .  S
O724        C732   1.265       .  A
O725       Cr733   2.061       .  S
O725        C726   1.272       .  A
C726        O727   1.246       .  A
C726        C882   1.503       .  S
O727       Cr734   1.955       .  S
O728       Cr734   2.043       .  S
O728        C729   1.276       .  A
C729        O730   1.254       .  A
C729        C802   1.480   1_545  S
O730       Cr735   1.931   1_545  S
O731       Cr735   2.019   1_545  S
O731        C732   1.268       .  A
C732        C917   1.490       .  S
Cr733       O736   1.770       .  S
Cr734       O736   1.757       .  S
Cr735      O1841   2.024       .  S
Cr735      O1842   1.949       .  S
Cr735       O736   1.761   1_565  S
C737        C738   1.415       .  A
C737        C742   1.409       .  A
C737        H744   1.083       .  S
C738        C739   1.412       .  A
C739        C740   1.409       .  A
C739        C746   1.518       .  S
C740        C741   1.414       .  A
C740        H745   1.083       .  S
C741        C742   1.410       .  A
C742        C743   1.517       .  S
C743        F747   1.384       .  S
C743        F748   1.384       .  S
C743        F749   1.382       .  S
C746        F750   1.382       .  S
C746        F751   1.383       .  S
C746        F752   1.385       .  S
C753        C754   1.401       .  A
C753        C758   1.413       .  A
C753        H760   1.083       .  S
C754        C755   1.408       .  A
C755        C756   1.408       .  A
C755        C762   1.517       .  S
C756        C757   1.415       .  A
C756        H761   1.082       .  S
C757        C758   1.428       .  A
C758        C759   1.520       .  S
C759        F763   1.385       .  S
C759        F764   1.383       .  S
C759        F765   1.383       .  S
C762        F766   1.384       .  S
C762        F767   1.382       .  S
C762        F768   1.385       .  S
C769        C770   1.399       .  A
C769        C774   1.414       .  A
C769        H776   1.084       .  S
C770       C1793   1.493   1_545  S
C770        C771   1.418       .  A
C771        C772   1.415       .  A
C771       C1898   1.516   1_545  S
C772        C773   1.409       .  A
C772        H777   1.082       .  S
C773        C774   1.432       .  A
C774        C775   1.520       .  S
C775        F779   1.385       .  S
C775        F780   1.383       .  S
C775        F781   1.384       .  S
C778       C1891   1.515       .  S
C778        F782   1.381       .  S
C778        F783   1.383       .  S
C778        F784   1.385       .  S
C785        C786   1.410       .  A
C785        C790   1.407       .  A
C785        H792   1.082       .  S
C786        C787   1.413       .  A
C787        C788   1.407       .  A
C787        C794   1.519       .  S
C788        C789   1.415       .  A
C788       H1913   1.081       .  S
C789       C1843   1.497       .  S
C789        C790   1.420       .  A
C790        C791   1.522       .  S
C791        F795   1.385       .  S
C791       F1916   1.384       .  S
C791        F797   1.383       .  S
H793       C1908   1.082       .  S
C794        F798   1.383       .  S
C794        F799   1.382       .  S
C794        F800   1.385       .  S
F796       C1911   1.384       .  S
C801       C1922   1.406       .  A
C801        C806   1.403       .  A
C801        H808   1.083       .  S
C802       C1921   1.403       .  A
C802        C803   1.408   1_565  A
C803        C810   1.508       .  S
C804       C1925   1.412   1_545  A
C804        H809   1.082       .  S
C805       C1924   1.412       .  A
C806        C807   1.521       .  S
C807        F811   1.385       .  S
C807        F813   1.377   1_556  S
C810        F814   1.382       .  S
C810        F815   1.383       .  S
C817        C822   1.411       .  A
C817        H824   1.082       .  S
C818        C819   1.413       .  A
C819        C820   1.408       .  A
C819        C826   1.517       .  S
C820        H825   1.083       .  S
C821        C822   1.416       .  A
C822        C823   1.520       .  S
C823        F827   1.385       .  S
C823        F828   1.383       .  S
C823        F829   1.382       .  S
C826        F830   1.379       .  S
C826        F831   1.383       .  S
C826        F832   1.382       .  S
C833        C834   1.411       .  A
C833        C838   1.408       .  A
C833        H840   1.083       .  S
C834        C835   1.422       .  A
C835        C842   1.516       .  S
C836        C837   1.405       .  A
C836        H841   1.080       .  S
C838        C839   1.516       .  S
C839        F843   1.385       .  S
C839        F845   1.383       .  S
C842        F846   1.382       .  S
C842        F847   1.381       .  S
C849        C850   1.410       .  A
C849        C854   1.410       .  A
C849        H856   1.083       .  S
C850        C851   1.420       .  A
C851        C852   1.403       .  A
C851        C858   1.515       .  S
C852        C853   1.398       .  A
C852        H857   1.083       .  S
C853        C854   1.409       .  A
C854        C855   1.516       .  S
C855        F859   1.384       .  S
C855        F860   1.383       .  S
C855        F861   1.384       .  S
C858        F862   1.380       .  S
C858        F863   1.380       .  S
C858        F864   1.385       .  S
C865        C866   1.399       .  A
C865        C870   1.408       .  A
C865        H872   1.085       .  S
C866        C867   1.420       .  A
C867        C868   1.411       .  A
C867        C874   1.516       .  S
C868        C869   1.405       .  A
C868        H873   1.084       .  S
C869        C870   1.423       .  A
C870        C871   1.515       .  S
C871        F875   1.385       .  S
C871        F876   1.384       .  S
C871        F877   1.383       .  S
C874        F878   1.383       .  S
C874       F1999   1.381       .  S
C874        F880   1.385       .  S
F879       C1994   1.380       .  S
C881        C882   1.410       .  A
C881        C886   1.421       .  A
C881        H888   1.082       .  S
C882        C883   1.434       .  A
C883        C884   1.398       .  A
C883        C890   1.523       .  S
C884        C885   1.392       .  A
C884        H889   1.083       .  S
C885        C886   1.418       .  A
C886        C887   1.515       .  S
C887        F891   1.384       .  S
C887        F892   1.383       .  S
C887        F893   1.380       .  S
C890        F894   1.372       .  S
C890        F895   1.378       .  S
C890        F896   1.385       .  S
C897        C898   1.410       .  A
C897        C902   1.410   1_655  A
C897        H904   1.083       .  S
C898        C899   1.422       .  A
C899        C900   1.414   1_655  A
C899        C906   1.519       .  S
C900        C901   1.407       .  A
C900        H905   1.084       .  S
C901        C902   1.419       .  A
C902        C903   1.520       .  S
C903        F907   1.385       .  S
C903        F908   1.383       .  S
C903        F909   1.382       .  S
C906        F910   1.383       .  S
C906        F911   1.384       .  S
C906        F912   1.385       .  S
C913        C914   1.404       .  A
C913        C918   1.408       .  A
C913        H920   1.082       .  S
C914        C915   1.420       .  A
C915        C916   1.414       .  A
C915        C922   1.519       .  S
C916        C917   1.405       .  A
C916        H921   1.082       .  S
C917        C918   1.420       .  A
C918        C919   1.519   1_545  S
C919        F923   1.385       .  S
C919        F924   1.382       .  S
C919        F925   1.382   1_565  S
C922        F926   1.384       .  S
C922        F927   1.382       .  S
C922        F928   1.385       .  S
C929        C934   1.409       .  A
C929        H936   1.083       .  S
C930        C931   1.426       .  A
C931        C932   1.407   1_556  A
C931        C938   1.516       .  S
C932        H937   1.083       .  S
C933        C934   1.424       .  A
C934        C935   1.517       .  S
C935        F939   1.385       .  S
C935        F940   1.379       .  S
C935        F941   1.381       .  S
C938        F942   1.381       .  S
C938        F943   1.380       .  S
C938        F944   1.384       .  S
C945        C946   1.398       .  A
C945        C950   1.405       .  A
C945        H952   1.083       .  S
C946        C947   1.415       .  A
C947        C948   1.406       .  A
C947        C954   1.513       .  S
C948        C949   1.399       .  A
C948        H953   1.083       .  S
C949        C950   1.416       .  A
C950        C951   1.512       .  S
C951        F955   1.385       .  S
C951        F956   1.383       .  S
C951        F957   1.383       .  S
C954        F958   1.382       .  S
C954        F959   1.383       .  S
C954        F960   1.385       .  S
C961        C962   1.413       .  A
C961        C966   1.411       .  A
C961        H968   1.081       .  S
C962        C963   1.430       .  A
C963        C964   1.419       .  A
C963        C970   1.518       .  S
C964        C965   1.404       .  A
C964        H969   1.082       .  S
C965        C966   1.413       .  A
C966        C967   1.517       .  S
C967        F971   1.384       .  S
C967        F972   1.383       .  S
C967        F973   1.382       .  S
C970        F974   1.384       .  S
C970        F975   1.382       .  S
C970        F976   1.385       .  S
C977        C978   1.398       .  A
C977        C982   1.410       .  A
C977        H984   1.083       .  S
C978       C1705   1.492   1_545  S
C978        C979   1.421       .  A
C979        C980   1.416       .  A
C979       C2106   1.517   1_545  S
C980        C981   1.407       .  A
C980        H985   1.082       .  S
C981        C982   1.432       .  A
C982        C983   1.521       .  S
C983        F987   1.385       .  S
C983        F988   1.383       .  S
C983        F989   1.384       .  S
C986       C2099   1.516       .  S
C986        F990   1.383       .  S
C986        F991   1.383       .  S
C986        F992   1.384       .  S
C993        C994   1.401       .  A
C993       H1000   1.084       .  S
C994        C995   1.415       .  A
C995       C2116   1.404       .  A
C995       C2122   1.519       .  S
C996       C2115   1.406       .  A
C996       C1557   1.404   1_545  A
C996       H1001   1.081       .  S
C997       C1733   1.482       .  S
C997       C1556   1.403   1_556  A
C997        C998   1.422   1_556  A
C998        C999   1.519   1_554  S
C999       F1003   1.385   1_556  S
C999       F1004   1.382       .  S
C999       F1005   1.383       .  S
C1002      C2115   1.519       .  S
C1002      F1006   1.382       .  S
C1002      F1007   1.382       .  S
C1002      F1008   1.385       .  S
C1009      C2130   1.410   1_545  A
C1009      C1014   1.400       .  A
C1009      H1016   1.083       .  S
C1010      C2129   1.410       .  A
C1010      C1011   1.425       .  A
C1011      C1012   1.407       .  A
C1011      C1018   1.520       .  S
C1012      C2133   1.404       .  A
C1012      H1017   1.084       .  S
C1013      C2132   1.405       .  A
C1013      C1014   1.407   1_565  A
C1014      C1015   1.506       .  S
C1015      F1019   1.385       .  S
C1015      F1020   1.380       .  S
C1015      F1021   1.383       .  S
C1018      F1022   1.380       .  S
C1018      F1023   1.379       .  S
C1018      F1024   1.385       .  S
C1025      C1026   1.407       .  A
C1025      C1030   1.404   1_655  A
C1025      H1032   1.083       .  S
C1026      C1027   1.419       .  A
C1027      C1028   1.409   1_655  A
C1027      C1034   1.519       .  S
C1028      C1029   1.406       .  A
C1028      H1033   1.084       .  S
C1029      C1030   1.417       .  A
C1030      C1031   1.521       .  S
C1031      F1035   1.382       .  S
C1031      F1036   1.383       .  S
C1031      F1037   1.385       .  S
C1034      F1038   1.385       .  S
C1034      F1039   1.383       .  S
C1034      F1040   1.383       .  S
C1041      C1042   1.412       .  A
C1041      C1046   1.402       .  A
C1041      H1048   1.082       .  S
C1042      C1043   1.406       .  A
C1043      C1044   1.404       .  A
C1043      C1050   1.518       .  S
C1044      C1045   1.413       .  A
C1044      H1049   1.083       .  S
C1045      C1046   1.405       .  A
C1046      C1047   1.516       .  S
C1047      F1051   1.385       .  S
C1047      F1052   1.382       .  S
C1047      F1053   1.383       .  S
C1050      F1054   1.383       .  S
C1050      F1055   1.383       .  S
C1050      F1056   1.384       .  S
C1057      C1058   1.399       .  A
C1057      C1062   1.405       .  A
C1057      H1064   1.084       .  S
C1058      C1059   1.409       .  A
C1059      C1060   1.408       .  A
C1059      C1066   1.517       .  S
C1060      C1061   1.412       .  A
C1060      H1065   1.083       .  S
C1061      C1062   1.425       .  A
C1062      C1063   1.520       .  S
C1063      F1067   1.385       .  S
C1063      F1068   1.383       .  S
C1063      F1069   1.382       .  S
C1066      F1070   1.383       .  S
C1066      F1071   1.382       .  S
C1066      F1072   1.385       .  S
C1073      C1074   1.394       .  A
C1073      C1078   1.398   1_556  A
C1073      H1080   1.084       .  S
C1074      C1075   1.421       .  A
C1075      C1082   1.518       .  S
C1076      C1077   1.403       .  A
C1076      H1081   1.083       .  S
C1078      C1079   1.508       .  S
C1079      F1083   1.384   1_554  S
C1079      F1085   1.380       .  S
C1082      F1086   1.383       .  S
C1082      F1087   1.382       .  S
C1082      F1088   1.384   1_556  S
C1089      C1090   1.406       .  A
C1089      C1094   1.412       .  A
C1089      H1096   1.082       .  S
C1090      C1091   1.428       .  A
C1091      C1092   1.413       .  A
C1091      C1098   1.518       .  S
C1092      C1093   1.400       .  A
C1092      H1097   1.083       .  S
C1093      C1094   1.419       .  A
C1094      C1095   1.515       .  S
C1095      F1099   1.385       .  S
C1095      F1100   1.384       .  S
C1095      F2221   1.380       .  S
C1098      F1102   1.384       .  S
C1098      F1103   1.383       .  S
C1098      F1104   1.385       .  S
F1101      C2215   1.380       .  S
C1105      C1106   1.411       .  A
C1105      C1110   1.423       .  A
C1105      H1112   1.082       .  S
C1106      C1107   1.436       .  A
C1107      C1108   1.403       .  A
C1107      C1114   1.518       .  S
C1108      C1109   1.391       .  A
C1108      H1113   1.083       .  S
C1109      C1110   1.421       .  A
C1110      C1111   1.515       .  S
C1111      F1115   1.384       .  S
C1111      F1116   1.383       .  S
C1111      F1117   1.383       .  S
C1114      F1118   1.371       .  S
C1114      F1119   1.381       .  S
C1114      F1120   1.385       .  S
O1121     Cr1139   2.020       .  S
O1121      C1129   1.270       .  A
O1122     Cr1139   1.927       .  S
O1122      C1123   1.248       .  A
C1123      O1124   1.275       .  A
C1123      C1605   1.468       .  S
O1124     Cr1140   2.049       .  S
O1125     Cr1140   1.988       .  S
O1125      C1126   1.259       .  A
C1126      O1127   1.266       .  A
C1126      C1669   1.491       .  S
O1127     Cr1141   2.009       .  S
O1128     Cr1141   1.974       .  S
O1128      C1129   1.260       .  A
C1129      C1618   1.472       .  S
O1130     Cr1139   1.976       .  S
O1130      C1138   1.259       .  A
O1131     Cr1139   2.035       .  S
O1131      C1132   1.271       .  A
C1132      O1133   1.251       .  A
C1132      C1650   1.498       .  S
O1133     Cr1140   1.961       .  S
O1134     Cr1140   2.026       .  S
O1134      C1135   1.277       .  A
C1135      O1136   1.258       .  A
C1135      C1634   1.471       .  S
O1136     Cr1141   1.961       .  S
O1137     Cr1141   2.010       .  S
O1137      C1138   1.268       .  A
C1138      C1586   1.488       .  S
Cr1139     O1142   1.762       .  S
Cr1140     O1142   1.767       .  S
Cr1141     O1142   1.758       .  S
O1143     Cr1161   1.950       .  S
O1143      C1151   1.258       .  A
O1144     Cr1161   2.020       .  S
O1144      C1145   1.266       .  A
C1145      O1146   1.258       .  A
O1146     Cr1162   1.988       .  S
O1147     Cr1162   2.052       .  S
O1147      C1148   1.277       .  A
C1148      O1149   1.246       .  A
C1148      C1602   1.475       .  S
O1149     Cr1163   1.924       .  S
O1150     Cr1163   2.027       .  S
O1150      C1151   1.270       .  A
C1151      C1570   1.494       .  S
O1152     Cr1161   2.026       .  S
O1152      C1160   1.269       .  A
O1153     Cr1161   1.947       .  S
O1153      C1154   1.257       .  A
C1154      O1155   1.277       .  A
C1154      C1554   1.471       .  S
O1155     Cr1162   2.043       .  S
O1156     Cr1162   1.973       .  S
O1156      C1157   1.258       .  A
C1157      O1158   1.267       .  A
C1157      C1522   1.511       .  S
O1158     Cr1163   2.033       .  S
O1159     Cr1163   1.975       .  S
O1159      C1160   1.259       .  A
C1160      C1506   1.477       .  S
Cr1161     O1164   1.765       .  S
Cr1162     O1164   1.771       .  S
Cr1163     O1164   1.770       .  S
O1165     Cr1183   2.034       .  S
O1165      C1173   1.277       .  A
O1166     Cr1183   1.917       .  S
O1166      C1167   1.243       .  A
C1167      O1168   1.280       .  A
C1167      C1490   1.472       .  S
O1168     Cr1184   2.077       .  S
O1169     Cr1184   1.981       .  S
C1170      O1171   1.266       .  A
C1170      C1653   1.488       .  S
O1174     Cr1183   1.979       .  S
O1174      C1182   1.261       .  A
O1175     Cr1183   2.067       .  S
O1175      C1176   1.271       .  A
C1176      O1177   1.242       .  A
C1176      C1666   1.507       .  S
O1177     Cr1184   1.951       .  S
O1178     Cr1184   2.048       .  S
O1178      C1179   1.279       .  A
C1179      O1180   1.256       .  A
C1179      C1573   1.480       .  S
O1180     Cr1185   1.940       .  S
O1181     Cr1185   2.021       .  S
O1181      C1182   1.270       .  A
C1182      C1474   1.486       .  S
Cr1183     O1186   1.768       .  S
Cr1184     O1186   1.756       .  S
Cr1185     O1186   1.760       .  S
O1187     Cr1205   1.956       .  S
O1187      C1195   1.260       .  A
O1188     Cr1205   2.012       .  S
O1188      C1189   1.263       .  A
C1189      O1190   1.260       .  A
C1189      C1525   1.488       .  S
O1190     Cr1206   1.995       .  S
O1191     Cr1206   2.047       .  S
O1191      C1192   1.274       .  A
C1192      O1193   1.248       .  A
C1192      C1493   1.474       .  S
O1193     Cr1207   1.921       .  S
O1194     Cr1207   2.048       .  S
O1194      C1195   1.279       .  A
C1195      C1637   1.477       .  S
O1196     Cr1205   2.020       .  S
O1196      C1204   1.265       .  A
O1197     Cr1205   1.966       .  S
O1197      C1198   1.266       .  A
C1198      O1199   1.275       .  A
C1198      C1621   1.490       .  S
O1199     Cr1206   2.031       .  S
O1200     Cr1206   1.959       .  S
O1200      C1201   1.250       .  A
C1201      O1202   1.273       .  A
C1201      C1541   1.511       .  S
O1202     Cr1207   2.046       .  S
O1203     Cr1207   1.986       .  S
O1203      C1204   1.258       .  A
C1204      C1458   1.492       .  S
Cr1205     O1208   1.771       .  S
Cr1206     O1208   1.770       .  S
Cr1207     O1208   1.774       .  S
O1209     Cr1227   2.023       .  S
O1209      C1217   1.272       .  A
O1210     Cr1227   1.929       .  S
O1210      C1211   1.250       .  A
C1211      O1212   1.277       .  A
C1211      C1378   1.496       .  S
O1212     Cr1228   2.052       .  S
O1213     Cr1228   1.990       .  S
O1213      C1214   1.256       .  A
C1214      O1215   1.262       .  A
C1214      C1445   1.483       .  S
O1215     Cr1229   1.991       .  S
O1216     Cr1229   1.958       .  S
O1216      C1217   1.259       .  A
C1217      C1397   1.474       .  S
O1218     Cr1227   1.979       .  S
O1218      C1226   1.260       .  A
O1219     Cr1227   2.028       .  S
O1219      C1220   1.271       .  A
C1220      O1221   1.250       .  A
C1220      C1429   1.495       .  S
O1221     Cr1228   1.954       .  S
O1222     Cr1228   2.047       .  S
O1222      C1223   1.280       .  A
C1223      O1224   1.262       .  A
C1223      C1410   1.488       .  S
O1224     Cr1229   1.956       .  S
O1225     Cr1229   2.006       .  S
O1225      C1226   1.262       .  A
C1226      C1589   1.484       .  S
Cr1227     O1230   1.767       .  S
Cr1228     O1230   1.766       .  S
Cr1229     O1230   1.758       .  S
O1231     Cr1249   1.961       .  S
O1231      C1239   1.263       .  A
O1232     Cr1249   2.027       .  S
O1232      C1233   1.264       .  A
C1233      O1234   1.256       .  A
O1234     Cr1250   1.991       .  S
O1235     Cr1250   2.048       .  S
O1235      C1236   1.277       .  A
C1236      O1237   1.251       .  A
C1236      C1381   1.495       .  S
O1237     Cr1251   1.931       .  S
O1238     Cr1251   2.013       .  S
O1238      C1239   1.267       .  A
C1239      C1365   1.490       .  S
O1240     Cr1249   2.017       .  S
O1240      C1248   1.266       .  A
O1241     Cr1249   1.938       .  S
O1241      C1242   1.258       .  A
C1242      O1243   1.279       .  A
C1242      C1346   1.478       .  S
O1243     Cr1250   2.042       .  S
O1244     Cr1250   1.966       .  S
O1244      C1245   1.255       .  A
C1245      O1246   1.266       .  A
C1245      C1317   1.508       .  S
O1246     Cr1251   2.029       .  S
O1247     Cr1251   1.985       .  S
O1247      C1248   1.262       .  A
C1248      C1509   1.476       .  S
Cr1249     O1252   1.766       .  S
Cr1250     O1252   1.763       .  S
Cr1251     O1252   1.766       .  S
O1253     Cr1271   1.962       .  S
O1253      C1261   1.257       .  A
O1254     Cr1271   2.018       .  S
O1254      C1255   1.264       .  A
C1255      O1256   1.257       .  A
C1255      C1314   1.487       .  S
O1256     Cr1272   1.989       .  S
O1257     Cr1272   2.052       .  S
O1257      C1258   1.276       .  A
C1258      O1259   1.249       .  A
C1258      C1301   1.489       .  S
O1259     Cr1273   1.935       .  S
O1260     Cr1273   2.024       .  S
O1260      C1261   1.271       .  A
C1261      C1413   1.471       .  S
O1262     Cr1271   2.025       .  S
O1262      C1270   1.268       .  A
O1263     Cr1271   1.959       .  S
O1263      C1264   1.263       .  A
C1264      O1265   1.279       .  A
C1264      C1394   1.505       .  S
O1265     Cr1272   2.046       .  S
O1266     Cr1272   1.967       .  S
O1266      C1267   1.256       .  A
C1267      O1268   1.274       .  A
C1267      C1333   1.508       .  S
O1268     Cr1273   2.044       .  S
O1269     Cr1273   1.983       .  S
O1269      C1270   1.262       .  A
C1270      C1461   1.488       .  S
Cr1271     O1274   1.769       .  S
Cr1272     O1274   1.771       .  S
Cr1273     O1274   1.771       .  S
O1275     Cr1293   2.027       .  S
O1275      C1283   1.274       .  A
O1276     Cr1293   1.934       .  S
O1276      C1277   1.250       .  A
C1277      O1278   1.278       .  A
C1277      C1298   1.492       .  S
O1278     Cr1294   2.066       .  S
O1279     Cr1294   1.980       .  S
C1280      O1281   1.265       .  A
C1280      C1426   1.477       .  S
O1284     Cr1293   1.985       .  S
O1284      C1292   1.263       .  A
O1285     Cr1293   2.058       .  S
O1285      C1286   1.272       .  A
C1286      O1287   1.243       .  A
C1286      C1442   1.496       .  S
O1287     Cr1294   1.949       .  S
O1288     Cr1294   2.047       .  S
O1288      C1289   1.277       .  A
C1289      O1290   1.253       .  A
C1289      C1362   1.480       .  S
O1290     Cr1295   1.929       .  S
O1291     Cr1295   2.019       .  S
O1291      C1292   1.269       .  A
C1292      C1477   1.485       .  S
Cr1293     O1296   1.769       .  S
Cr1294     O1296   1.755       .  S
Cr1295     O1296   1.758       .  S
C1297      C1298   1.417       .  A
C1297      C1302   1.410       .  A
C1297      H1304   1.083       .  S
C1298      C1299   1.411       .  A
C1299      C1300   1.407       .  A
C1299      C1306   1.518       .  S
C1300      C1301   1.414       .  A
C1300      H1305   1.083       .  S
C1301      C1302   1.410       .  A
C1302      C1303   1.518       .  S
C1303      F1307   1.384       .  S
C1303      F1308   1.384       .  S
C1303      F1309   1.383       .  S
C1306      F1310   1.382       .  S
C1306      F1311   1.383       .  S
C1306      F1312   1.384       .  S
C1313      C1314   1.403       .  A
C1313      C1318   1.416       .  A
C1313      H1320   1.078       .  S
C1314      C1315   1.410       .  A
C1315      C1316   1.409       .  A
C1315      C1322   1.516       .  S
C1316      C1317   1.414       .  A
C1316      H1321   1.081       .  S
C1317      C1318   1.427       .  A
C1318      C1319   1.519       .  S
C1319      F1323   1.385       .  S
C1319      F1324   1.384       .  S
C1319      F1325   1.383       .  S
C1322      F1326   1.383       .  S
C1322      F1327   1.381       .  S
C1322      F1328   1.385       .  S
C1329      C1330   1.401       .  A
C1329      C1334   1.414       .  A
C1329      H1336   1.085       .  S
C1330      C1331   1.419       .  A
C1331      C1332   1.414       .  A
C1332      C1333   1.408       .  A
C1332      H1337   1.082       .  S
C1333      C1334   1.428       .  A
C1334      C1335   1.516       .  S
C1335      F1339   1.385       .  S
C1335      F1340   1.382       .  S
C1335      F1341   1.383       .  S
C1338      F1342   1.381       .  S
C1338      F1343   1.382   1_545  S
C1338      F1344   1.385       .  S
C1345      C1346   1.405       .  A
C1345      C1350   1.401   1_565  A
C1345      H1352   1.083   1_565  S
C1346      C1347   1.410       .  A
C1347      C1348   1.408       .  A
C1347      C1354   1.519       .  S
C1348      C1349   1.417       .  A
C1349      C1350   1.420   1_565  A
C1350      C1351   1.521       .  S
C1351      F1355   1.385       .  S
C1351      F1357   1.383       .  S
C1354      F1358   1.384       .  S
C1354      F1359   1.382       .  S
C1354      F1360   1.385       .  S
C1361      C1366   1.401       .  A
C1361      H1368   1.083       .  S
C1362      C1363   1.409       .  A
C1363      C1924   1.404       .  A
C1363      C1370   1.509       .  S
C1364      C1923   1.402   1_554  A
C1364      H1369   1.081       .  S
C1365      C1926   1.425   1_554  A
C1366      C1925   1.423       .  A
C1366      C1367   1.521       .  S
C1367      F1371   1.385       .  S
C1367      F1932   1.382       .  S
C1367      F1373   1.379       .  S
C1370      F1374   1.382       .  S
C1370      F1375   1.383       .  S
C1370      F1936   1.385       .  S
F1372      C1927   1.380       .  S
F1376      C1930   1.385       .  S
C1377      C1938   1.418       .  A
C1377      C1382   1.406   1_556  A
C1377      H1384   1.082       .  S
C1378      C1937   1.416       .  A
C1378      C1379   1.414       .  A
C1379      C1380   1.409       .  A
C1379      C1386   1.519       .  S
C1380      C1941   1.418       .  A
C1380      H1385   1.083       .  S
C1381      C1940   1.417   1_554  A
C1381      C1382   1.412       .  A
C1382      C1383   1.520       .  S
C1383      F1387   1.385       .  S
C1383      F1388   1.384       .  S
C1383      F1389   1.382       .  S
C1386      F1390   1.380       .  S
C1386      F1391   1.383       .  S
C1386      F1392   1.384       .  S
C1393      C1394   1.416       .  A
C1393      C1398   1.408   1_554  A
C1393      H1400   1.081       .  S
C1394      C1395   1.425       .  A
C1395      C1956   1.408   1_554  A
C1395      C1402   1.518       .  S
C1396      C1955   1.408       .  A
C1396      C1397   1.404       .  A
C1396      H1401   1.083       .  S
C1397      C1958   1.408       .  A
C1398      C1957   1.411       .  A
C1398      C1399   1.519       .  S
C1399      F1403   1.384       .  S
C1399      F1964   1.384       .  S
C1399      F1405   1.382       .  S
C1402      F1406   1.382       .  S
C1402      F1407   1.381       .  S
C1402      F1968   1.385   1_554  S
F1404      C1959   1.383       .  S
F1408      C1962   1.385       .  S
C1409      C1410   1.411       .  A
C1409      C1414   1.408       .  A
C1409      H1416   1.082       .  S
C1410      C1411   1.421       .  A
C1411      C1412   1.407       .  A
C1411      C1418   1.519       .  S
C1412      C1413   1.401       .  A
C1412      H1417   1.083       .  S
C1413      C1414   1.408       .  A
C1414      C1415   1.516       .  S
C1415      F1419   1.384       .  S
C1415      F1420   1.383       .  S
C1415      F1421   1.383       .  S
C1418      F1422   1.382       .  S
C1418      F1423   1.382       .  S
C1418      F1424   1.385       .  S
C1425      C1426   1.397       .  A
C1425      C1430   1.408       .  A
C1425      H1432   1.085       .  S
C1426      C1427   1.417       .  A
C1427      C1428   1.407       .  A
C1427      C1434   1.516       .  S
C1428      C1429   1.405       .  A
C1428      H1433   1.083       .  S
C1429      C1430   1.428       .  A
C1430      C1431   1.519       .  S
C1431      F1435   1.385       .  S
C1431      F1436   1.384       .  S
C1431      F1437   1.383       .  S
C1434      F1438   1.383   1_565  S
C1434      F1440   1.385       .  S
C1441      C1442   1.409       .  A
C1441      C1446   1.418       .  A
C1441      H1448   1.082       .  S
C1442      C1443   1.434       .  A
C1443      C1444   1.396       .  A
C1443      C1450   1.525       .  S
C1444      C1445   1.392       .  A
C1444      H1449   1.083       .  S
C1445      C1446   1.417       .  A
C1446      C1447   1.515       .  S
C1447      F1451   1.384       .  S
C1447      F1452   1.383       .  S
C1447      F1453   1.382       .  S
C1450      F1454   1.372       .  S
C1450      F1455   1.377       .  S
C1450      F1456   1.386       .  S
C1457      C1458   1.407       .  A
C1457      C1462   1.410   1_655  A
C1457      H1464   1.084       .  S
C1458      C1459   1.418       .  A
C1459      C1460   1.414   1_655  A
C1459      C1466   1.517       .  S
C1460      C1461   1.406       .  A
C1460      H1465   1.084       .  S
C1461      C1462   1.415       .  A
C1462      C1463   1.516       .  S
C1463      F1467   1.385       .  S
C1463      F1468   1.383       .  S
C1463      F1469   1.382       .  S
C1466      F1470   1.382       .  S
C1466      F1471   1.383       .  S
C1466      F1472   1.384       .  S
C1473      C1474   1.404       .  A
C1473      C1478   1.406       .  A
C1473      H1480   1.082       .  S
C1474      C1475   1.419       .  A
C1475      C1476   1.412       .  A
C1475      C1482   1.519       .  S
C1476      C1477   1.405       .  A
C1476      H1481   1.082       .  S
C1477      C1478   1.418       .  A
C1478      C1479   1.519       .  S
C1479      F1483   1.385       .  S
C1479      F1484   1.382       .  S
C1479      F1485   1.382       .  S
C1482      F1486   1.384       .  S
C1482      F1487   1.383       .  S
C1482      F1488   1.385       .  S
C1489      C2050   1.395   1_554  A
C1489      C1494   1.407       .  A
C1489      H1496   1.083   1_554  S
C1490      C2049   1.396       .  A
C1490      C1491   1.426       .  A
C1491      C1492   1.405       .  A
C1491      C1498   1.519       .  S
C1492      C2053   1.394       .  A
C1492      H1497   1.083       .  S
C1493      C2052   1.393       .  A
C1493      C1494   1.424       .  A
C1494      C1495   1.516       .  S
C1495      F1499   1.385       .  S
C1495      F1500   1.378       .  S
C1495      F1501   1.381       .  S
C1498      F1502   1.381       .  S
C1498      F1503   1.380       .  S
C1498      F1504   1.385       .  S
C1505      C1506   1.400       .  A
C1505      C1510   1.408       .  A
C1505      H1512   1.083       .  S
C1506      C1507   1.417       .  A
C1507      C1508   1.408       .  A
C1507      C1514   1.513       .  S
C1508      C1509   1.399       .  A
C1508      H1513   1.083       .  S
C1509      C1510   1.416       .  A
C1510      C1511   1.512       .  S
C1511      F1515   1.385       .  S
C1511      F1516   1.382       .  S
C1511      F1517   1.384       .  S
C1514      F1518   1.383       .  S
C1514      F1519   1.383       .  S
C1514      F1520   1.385       .  S
C1521      C1522   1.414       .  A
C1521      C1526   1.410       .  A
C1521      H1528   1.081       .  S
C1522      C1523   1.428       .  A
C1523      C1524   1.415       .  A
C1523      C1530   1.517       .  S
C1524      C1525   1.402       .  A
C1524      H1529   1.082       .  S
C1525      C1526   1.412       .  A
C1526      C1527   1.517       .  S
C1527      F1531   1.385       .  S
C1527      F1532   1.382       .  S
C1527      F1533   1.382       .  S
C1530      F1534   1.383       .  S
C1530      F1535   1.380       .  S
C1530      F1536   1.385       .  S
C1537      C1538   1.399       .  A
C1537      C1542   1.411       .  A
C1537      H1544   1.083       .  S
C1538      C1539   1.420       .  A
C1539      C1540   1.417       .  A
C1540      C1541   1.408       .  A
C1540      H1545   1.081       .  S
C1541      C1542   1.432       .  A
C1542      C1543   1.521       .  S
C1543      F1547   1.385       .  S
C1543      F1548   1.383       .  S
C1543      F1549   1.384       .  S
C1546      F1550   1.382       .  S
C1546      F1551   1.383       .  S
C1546      F1552   1.384       .  S
C1553      C1554   1.398       .  A
C1553      C2118   1.408       .  A
C1553      H1560   1.083       .  S
C1554      C1555   1.416   1_565  A
C1556      H1561   1.080       .  S
C1557      C1558   1.422       .  A
C1558      C2113   1.408       .  A
C1558      C1559   1.519       .  S
C1559      F1563   1.385       .  S
C1559      F1564   1.383       .  S
C1559      F1565   1.384       .  S
C1562      F1566   1.381       .  S
C1562      F1567   1.382       .  S
C1562      F1568   1.385       .  S
C1569      C1574   1.401       .  A
C1569      H1576   1.083       .  S
C1570      C1571   1.424       .  A
C1571      C1572   1.406       .  A
C1571      C1578   1.520       .  S
C1572      H1577   1.084       .  S
C1573      C1574   1.409       .  A
C1574      C1575   1.507       .  S
C1575      F1579   1.385       .  S
C1575      F1580   1.380       .  S
C1575      F1581   1.383       .  S
C1578      F1582   1.379       .  S
C1578      F1583   1.379       .  S
C1578      F1584   1.385       .  S
C1585      C1586   1.407       .  A
C1585      C1590   1.403   1_655  A
C1585      H1592   1.082       .  S
C1586      C1587   1.419       .  A
C1587      C1588   1.410   1_655  A
C1587      C1594   1.519       .  S
C1588      C1589   1.406       .  A
C1588      H1593   1.083       .  S
C1589      C1590   1.419       .  A
C1590      C1591   1.522       .  S
C1591      F1595   1.383       .  S
C1591      F1596   1.382       .  S
C1591      F1597   1.385       .  S
C1594      F1598   1.384       .  S
C1594      F1599   1.383       .  S
C1594      F1600   1.382       .  S
C1601      C1602   1.413       .  A
C1601      C1606   1.405       .  A
C1601      H1608   1.082       .  S
C1602      C1603   1.408       .  A
C1603      C1604   1.404       .  A
C1603      C1610   1.516       .  S
C1604      C1605   1.410       .  A
C1604      H1609   1.084       .  S
C1605      C1606   1.405       .  A
C1606      C1607   1.517       .  S
C1607      F1611   1.385       .  S
C1607      F1612   1.383       .  S
C1607      F1613   1.383       .  S
C1610      F1614   1.383       .  S
C1610      F1615   1.382       .  S
C1610      F1616   1.385       .  S
C1617      C1618   1.401       .  A
C1617      C1622   1.408       .  A
C1617      H1624   1.084       .  S
C1618      C1619   1.409       .  A
C1619      C1620   1.406       .  A
C1619      C1626   1.517       .  S
C1620      C1621   1.410       .  A
C1620      H1625   1.083       .  S
C1621      C1622   1.423       .  A
C1622      C1623   1.520       .  S
C1623      F1627   1.385       .  S
C1623      F1628   1.383       .  S
C1623      F1629   1.382       .  S
C1626      F1630   1.383       .  S
C1626      F1631   1.382       .  S
C1626      F1632   1.384       .  S
C1633      C1634   1.393       .  A
C1633      C1638   1.396       .  A
C1633      H1640   1.084       .  S
C1634      C1635   1.418       .  A
C1635      C2196   1.411       .  A
C1635      C1642   1.516       .  S
C1636      C2195   1.413   1_554  A
C1636      C1637   1.401       .  A
C1636      H1641   1.084       .  S
C1637      C2198   1.417       .  A
C1638      C2197   1.417       .  A
C1638      C1639   1.507       .  S
C1639      F1643   1.384       .  S
C1639      F2204   1.382       .  S
C1639      F1645   1.380       .  S
C1642      F1646   1.383       .  S
C1642      F1647   1.382       .  S
C1642      F1648   1.385       .  S
F1644      C2199   1.381       .  S
C1649      C1650   1.405       .  A
C1649      C1654   1.408       .  A
C1649      H1656   1.082       .  S
C1650      C1651   1.427       .  A
C1651      C1652   1.414       .  A
C1651      C1658   1.517       .  S
C1652      C1653   1.401       .  A
C1652      H1657   1.083       .  S
C1653      C1654   1.419       .  A
C1654      C1655   1.515       .  S
C1655      F1659   1.385       .  S
C1655      F1660   1.383       .  S
C1658      F1662   1.383       .  S
C1658      F1663   1.383       .  S
C1658      F1664   1.385       .  S
C1665      C1666   1.409       .  A
C1665      C1670   1.421       .  A
C1665      H1672   1.082       .  S
C1666      C1667   1.435       .  A
C1667      C1668   1.401       .  A
C1667      C1674   1.521       .  S
C1668      C1669   1.392       .  A
C1668      H1673   1.083       .  S
C1669      C1670   1.420       .  A
C1670      C1671   1.515       .  S
C1671      F1675   1.384       .  S
C1671      F1676   1.383       .  S
C1671      F1677   1.383       .  S
C1674      F1678   1.371       .  S
C1674      F1679   1.378       .  S
C1674      F1680   1.385       .  S
O1681     Cr1699   2.020       .  S
O1681      C1689   1.269       .  A
O1682     Cr1699   1.927       .  S
O1682      C1683   1.248       .  A
C1683      O1684   1.278       .  A
C1683      C2165   1.473       .  S
O1684     Cr1700   2.056       .  S
O1685     Cr1700   1.995       .  S
O1685      C1686   1.261       .  A
C1686      O1687   1.267       .  A
C1686      C2229   1.499       .  S
O1687     Cr1701   2.017       .  S
O1688     Cr1701   1.963       .  S
O1688      C1689   1.261       .  A
C1689      C2178   1.468       .  S
O1690     Cr1699   1.975       .  S
O1690      C1698   1.259       .  A
O1691     Cr1699   2.039       .  S
O1691      C1692   1.270       .  A
C1692      O1693   1.250       .  A
C1692      C2210   1.503       .  S
O1693     Cr1700   1.961       .  S
O1694     Cr1700   2.033       .  S
O1694      C1695   1.279       .  A
C1695      O1696   1.257       .  A
C1695      C2194   1.480       .  S
O1696     Cr1701   1.954       .  S
O1697     Cr1701   2.009       .  S
O1697      C1698   1.268       .  A
C1698      C2146   1.496       .  S
Cr1699     O1702   1.770       .  S
Cr1700     O1702   1.766       .  S
Cr1701     O1702   1.759       .  S
O1703     Cr1721   1.951       .  S
O1703      C1711   1.258       .  A
O1704     Cr1721   2.025       .  S
O1704      C1705   1.268       .  A
C1705      O1706   1.256       .  A
O1706     Cr1722   1.979       .  S
O1707     Cr1722   2.052       .  S
O1707      C1708   1.277       .  A
C1708      O1709   1.248       .  A
C1708      C2162   1.473       .  S
O1709     Cr1723   1.928       .  S
O1710     Cr1723   2.023       .  S
O1710      C1711   1.267       .  A
C1711      C2130   1.490       .  S
O1712     Cr1721   2.025       .  S
O1712      C1720   1.270       .  A
O1713     Cr1721   1.948       .  S
O1713      C1714   1.256       .  A
C1714      O1715   1.276       .  A
C1714      C2114   1.471       .  S
O1715     Cr1722   2.040       .  S
O1716     Cr1722   1.971       .  S
O1716      C1717   1.256       .  A
C1717      O1718   1.268       .  A
C1717      C2082   1.510       .  S
O1718     Cr1723   2.037       .  S
O1719     Cr1723   1.973       .  S
O1719      C1720   1.261       .  A
C1720      C2066   1.475       .  S
Cr1721     O1724   1.765       .  S
Cr1722     O1724   1.769       .  S
Cr1723     O1724   1.771       .  S
O1725     Cr1743   2.036       .  S
O1725      C1733   1.277       .  A
O1726     Cr1743   1.919       .  S
O1726      C1727   1.244       .  A
C1727      O1728   1.281       .  A
C1727      C2050   1.473       .  S
O1728     Cr1744   2.074       .  S
O1729     Cr1744   1.983       .  S
C1730      O1731   1.267       .  A
C1730      C2213   1.489       .  S
O1734     Cr1743   1.982       .  S
O1734      C1742   1.263       .  A
O1735     Cr1743   2.077       .  S
O1735      C1736   1.274       .  A
C1736      O1737   1.245       .  A
C1736      C2226   1.520       .  S
O1737     Cr1744   1.957       .  S
O1738     Cr1744   2.050       .  S
O1738      C1739   1.281       .  A
C1739      O1740   1.257       .  A
C1739      C2133   1.483       .  S
O1740     Cr1745   1.942       .  S
O1741     Cr1745   2.026       .  S
O1741      C1742   1.272       .  A
C1742      C2034   1.498       .  S
Cr1743     O1746   1.769       .  S
Cr1744     O1746   1.758       .  S
Cr1745     O1746   1.766       .  S
O1747     Cr1765   1.951       .  S
O1747      C1755   1.259       .  A
O1748     Cr1765   2.012       .  S
O1748      C1749   1.263       .  A
C1749      O1750   1.261       .  A
C1749      C2085   1.490       .  S
O1750     Cr1766   1.997       .  S
O1751     Cr1766   2.046       .  S
O1751      C1752   1.274       .  A
C1752      O1753   1.247       .  A
C1752      C2053   1.473       .  S
O1753     Cr1767   1.914       .  S
O1754     Cr1767   2.049       .  S
O1754      C1755   1.280       .  A
C1755      C2197   1.476       .  S
O1756     Cr1765   2.016       .  S
O1756      C1764   1.266       .  A
O1757     Cr1765   1.956       .  S
O1757      C1758   1.263       .  A
C1758      O1759   1.274       .  A
C1758      C2181   1.491       .  S
O1759     Cr1766   2.025       .  S
O1760     Cr1766   1.959       .  S
O1760      C1761   1.248       .  A
C1761      O1762   1.272       .  A
C1761      C2101   1.510       .  S
O1762     Cr1767   2.047       .  S
O1763     Cr1767   1.985       .  S
O1763      C1764   1.257       .  A
C1764      C2018   1.505       .  S
Cr1765     O1768   1.768       .  S
Cr1766     O1768   1.768       .  S
Cr1767     O1768   1.774       .  S
O1769     Cr1787   2.032       .  S
O1769      C1777   1.273       .  A
O1770     Cr1787   1.926       .  S
O1770      C1771   1.250       .  A
C1771      O1772   1.277       .  A
C1771      C1938   1.497       .  S
O1772     Cr1788   2.052       .  S
O1773     Cr1788   1.990       .  S
O1773      C1774   1.257       .  A
C1774      O1775   1.263       .  A
C1774      C2005   1.479       .  S
O1775     Cr1789   1.992       .  S
O1776     Cr1789   1.960       .  S
O1776      C1777   1.259       .  A
C1777      C1957   1.482       .  S
O1778     Cr1787   1.976       .  S
O1778      C1786   1.259       .  A
O1779     Cr1787   2.029       .  S
O1779      C1780   1.271       .  A
C1780      O1781   1.253       .  A
C1780      C1989   1.494       .  S
O1781     Cr1788   1.963       .  S
O1782     Cr1788   2.043       .  S
O1782      C1783   1.278       .  A
C1783      O1784   1.260       .  A
C1783      C1970   1.482       .  S
O1784     Cr1789   1.945       .  S
O1785     Cr1789   2.007       .  S
O1785      C1786   1.263       .  A
C1786      C2149   1.489       .  S
Cr1787     O1790   1.760       .  S
Cr1788     O1790   1.768       .  S
Cr1789     O1790   1.755       .  S
O1791     Cr1809   1.959       .  S
O1791      C1799   1.260       .  A
O1792     Cr1809   2.028       .  S
O1792      C1793   1.267       .  A
C1793      O1794   1.259       .  A
O1794     Cr1810   1.990       .  S
O1795     Cr1810   2.063       .  S
O1795      C1796   1.280       .  A
C1796      O1797   1.251       .  A
C1796      C1941   1.498       .  S
O1797     Cr1811   1.930       .  S
O1798     Cr1811   2.014       .  S
O1798      C1799   1.268       .  A
C1799      C1925   1.491       .  S
O1800     Cr1809   2.023       .  S
O1800      C1808   1.269       .  A
O1801     Cr1809   1.942       .  S
O1801      C1802   1.257       .  A
C1802      O1803   1.278       .  A
C1802      C1906   1.483       .  S
O1803     Cr1810   2.040       .  S
O1804     Cr1810   1.964       .  S
O1804      C1805   1.253       .  A
C1805      O1806   1.266       .  A
C1805      C1877   1.507       .  S
O1806     Cr1811   2.037       .  S
O1807     Cr1811   1.981       .  S
O1807      C1808   1.261       .  A
C1808      C2069   1.477       .  S
Cr1809     O1812   1.764       .  S
Cr1810     O1812   1.759       .  S
Cr1811     O1812   1.768       .  S
O1813     Cr1831   1.948       .  S
O1813      C1821   1.255       .  A
O1814     Cr1831   2.011       .  S
O1814      C1815   1.262       .  A
C1815      O1816   1.259       .  A
C1815      C1874   1.487       .  S
O1816     Cr1832   1.994       .  S
O1817     Cr1832   2.058       .  S
O1817      C1818   1.278       .  A
C1818      O1819   1.250       .  A
C1818      C1861   1.492       .  S
O1819     Cr1833   1.936       .  S
O1820     Cr1833   2.021       .  S
O1820      C1821   1.271       .  A
C1821      C1973   1.462       .  S
O1822     Cr1831   2.020       .  S
O1822      C1830   1.266       .  A
O1823     Cr1831   1.945       .  S
O1823      C1824   1.261       .  A
C1824      O1825   1.280       .  A
C1824      C1954   1.498       .  S
O1825     Cr1832   2.049       .  S
O1826     Cr1832   1.970       .  S
O1826      C1827   1.256       .  A
C1827      O1828   1.272       .  A
C1827      C1893   1.500       .  S
O1828     Cr1833   2.032       .  S
O1829     Cr1833   1.988       .  S
O1829      C1830   1.263       .  A
C1830      C2021   1.499       .  S
Cr1831     O1834   1.765       .  S
Cr1832     O1834   1.770       .  S
Cr1833     O1834   1.770       .  S
O1835     Cr1853   2.031       .  S
O1835      C1843   1.274       .  A
O1836     Cr1853   1.936       .  S
O1836      C1837   1.252       .  A
C1837      O1838   1.280       .  A
C1837      C1858   1.491       .  S
O1838     Cr1854   2.067       .  S
O1839     Cr1854   1.978       .  S
C1840      O1841   1.266       .  A
C1840      C1986   1.484       .  S
O1844     Cr1853   1.989       .  S
O1844      C1852   1.264       .  A
O1845     Cr1853   2.056       .  S
O1845      C1846   1.271       .  A
C1846      O1847   1.245       .  A
C1846      C2002   1.499       .  S
O1847     Cr1854   1.954       .  S
O1848     Cr1854   2.047       .  S
O1848      C1849   1.277       .  A
C1849      O1850   1.254       .  A
C1849      C1922   1.484       .  S
O1850     Cr1855   1.932       .  S
O1851     Cr1855   2.022       .  S
O1851      C1852   1.268       .  A
C1852      C2037   1.493       .  S
Cr1853     O1856   1.770       .  S
Cr1854     O1856   1.758       .  S
Cr1855     O1856   1.758       .  S
C1857      C1858   1.415       .  A
C1857      C1862   1.411       .  A
C1857      H1864   1.083       .  S
C1858      C1859   1.410       .  A
C1859      C1860   1.409       .  A
C1859      C1866   1.518       .  S
C1860      C1861   1.415       .  A
C1860      H1865   1.083       .  S
C1861      C1862   1.411       .  A
C1862      C1863   1.517       .  S
C1863      F1867   1.385       .  S
C1863      F1868   1.383       .  S
C1863      F1869   1.383       .  S
C1866      F1870   1.383       .  S
C1866      F1871   1.383       .  S
C1866      F1872   1.384       .  S
C1873      C1874   1.405       .  A
C1873      C1878   1.417       .  A
C1873      H1880   1.082       .  S
C1874      C1875   1.412       .  A
C1875      C1876   1.405       .  A
C1875      C1882   1.518       .  S
C1876      C1877   1.413       .  A
C1876      H1881   1.081       .  S
C1877      C1878   1.426       .  A
C1878      C1879   1.518       .  S
C1879      F1883   1.385       .  S
C1879      F1884   1.383       .  S
C1879      F1885   1.383       .  S
C1882      F1886   1.382       .  S
C1882      F1887   1.382       .  S
C1882      F1888   1.385       .  S
C1889      C1890   1.402       .  A
C1889      C1894   1.414       .  A
C1889      H1896   1.085       .  S
C1890      C1891   1.418       .  A
C1891      C1892   1.409       .  A
C1892      C1893   1.406       .  A
C1892      H1897   1.083       .  S
C1893      C1894   1.425       .  A
C1894      C1895   1.516       .  S
C1895      F1899   1.385       .  S
C1895      F1900   1.382       .  S
C1895      F1901   1.384       .  S
C1898      F1902   1.382       .  S
C1898      F1903   1.383       .  S
C1898      F1904   1.385   1_565  S
C1905      C1906   1.408       .  A
C1905      C1910   1.404   1_565  A
C1905      H1912   1.083   1_565  S
C1906      C1907   1.412       .  A
C1907      C1908   1.407       .  A
C1907      C1914   1.520       .  S
C1908      C1909   1.416       .  A
C1909      C1910   1.420   1_565  A
C1910      C1911   1.522       .  S
C1911      F1915   1.385       .  S
C1911      F1917   1.383       .  S
C1914      F1918   1.383       .  S
C1914      F1919   1.382       .  S
C1914      F1920   1.385       .  S
C1921      C1926   1.402       .  A
C1921      H1928   1.083       .  S
C1922      C1923   1.409       .  A
C1923      C1930   1.508       .  S
C1924      H1929   1.082       .  S
C1926      C1927   1.524       .  S
C1927      F1931   1.385       .  S
C1927      F1933   1.378       .  S
C1930      F1934   1.382       .  S
C1930      F1935   1.382       .  S
C1937      C1942   1.408       .  A
C1937      H1944   1.083       .  S
C1938      C1939   1.415       .  A
C1939      C1940   1.408       .  A
C1939      C1946   1.520       .  S
C1940      H1945   1.082       .  S
C1941      C1942   1.415       .  A
C1942      C1943   1.519       .  S
C1943      F1947   1.385       .  S
C1943      F1948   1.383       .  S
C1943      F1949   1.380       .  S
C1946      F1950   1.379       .  S
C1946      F1951   1.383       .  S
C1946      F1952   1.383       .  S
C1953      C1954   1.415       .  A
C1953      C1958   1.404       .  A
C1953      H1960   1.076       .  S
C1954      C1955   1.423       .  A
C1955      C1962   1.519       .  S
C1956      C1957   1.403       .  A
C1956      H1961   1.084       .  S
C1958      C1959   1.520       .  S
C1959      F1963   1.384       .  S
C1959      F1965   1.383       .  S
C1962      F1966   1.383       .  S
C1962      F1967   1.382       .  S
C1969      C1970   1.412       .  A
C1969      C1974   1.403       .  A
C1969      H1976   1.083       .  S
C1970      C1971   1.420       .  A
C1971      C1972   1.404       .  A
C1971      C1978   1.518       .  S
C1972      C1973   1.401       .  A
C1972      H1977   1.084       .  S
C1973      C1974   1.404       .  A
C1974      C1975   1.516       .  S
C1975      F1979   1.384       .  S
C1975      F1980   1.383       .  S
C1975      F1981   1.384       .  S
C1978      F1982   1.382       .  S
C1978      F1983   1.383       .  S
C1978      F1984   1.385       .  S
C1985      C1986   1.401       .  A
C1985      C1990   1.411       .  A
C1985      H1992   1.085       .  S
C1986      C1987   1.418       .  A
C1987      C1988   1.407       .  A
C1987      C1994   1.515       .  S
C1988      C1989   1.403       .  A
C1988      H1993   1.083       .  S
C1989      C1990   1.425       .  A
C1990      C1991   1.516       .  S
C1991      F1995   1.385       .  S
C1991      F1996   1.384       .  S
C1991      F1997   1.383       .  S
C1994      F1998   1.382   1_565  S
C1994      F2000   1.385       .  S
C2001      C2002   1.411       .  A
C2001      C2006   1.418       .  A
C2001      H2008   1.082       .  S
C2002      C2003   1.434       .  A
C2003      C2004   1.396       .  A
C2003      C2010   1.523       .  S
C2004      C2005   1.391       .  A
C2004      H2009   1.083       .  S
C2005      C2006   1.416       .  A
C2006      C2007   1.515       .  S
C2007      F2011   1.384       .  S
C2007      F2012   1.383       .  S
C2007      F2013   1.381       .  S
C2010      F2014   1.371       .  S
C2010      F2015   1.379       .  S
C2010      F2016   1.386       .  S
C2017      C2018   1.409       .  A
C2017      C2022   1.408   1_655  A
C2017      H2024   1.083       .  S
C2018      C2019   1.425       .  A
C2019      C2020   1.416   1_655  A
C2019      C2026   1.520       .  S
C2020      C2021   1.408       .  A
C2020      H2025   1.083       .  S
C2021      C2022   1.421       .  A
C2022      C2023   1.520       .  S
C2023      F2027   1.385       .  S
C2023      F2028   1.380       .  S
C2023      F2029   1.382       .  S
C2026      F2030   1.383       .  S
C2026      F2031   1.384       .  S
C2026      F2032   1.385       .  S
C2033      C2034   1.408       .  A
C2033      C2038   1.410       .  A
C2033      H2040   1.082       .  S
C2034      C2035   1.422       .  A
C2035      C2036   1.413       .  A
C2035      C2042   1.519       .  S
C2036      C2037   1.405       .  A
C2036      H2041   1.082       .  S
C2037      C2038   1.421       .  A
C2038      C2039   1.521       .  S
C2039      F2043   1.385       .  S
C2039      F2044   1.382       .  S
C2039      F2045   1.381       .  S
C2042      F2046   1.384       .  S
C2042      F2047   1.383       .  S
C2042      F2048   1.384       .  S
C2049      C2054   1.406       .  A
C2049      H2056   1.083       .  S
C2050      C2051   1.426       .  A
C2051      C2052   1.405   1_556  A
C2051      C2058   1.517       .  S
C2052      H2057   1.083       .  S
C2053      C2054   1.423       .  A
C2054      C2055   1.517       .  S
C2055      F2059   1.385       .  S
C2055      F2060   1.380       .  S
C2055      F2061   1.382       .  S
C2058      F2062   1.381       .  S
C2058      F2063   1.378       .  S
C2058      F2064   1.385       .  S
C2065      C2066   1.399       .  A
C2065      C2070   1.406       .  A
C2065      H2072   1.083       .  S
C2066      C2067   1.417       .  A
C2067      C2068   1.408       .  A
C2067      C2074   1.514       .  S
C2068      C2069   1.400       .  A
C2068      H2073   1.083       .  S
C2069      C2070   1.416       .  A
C2070      C2071   1.513       .  S
C2071      F2075   1.385       .  S
C2071      F2076   1.382       .  S
C2071      F2077   1.383       .  S
C2074      F2078   1.382       .  S
C2074      F2079   1.383       .  S
C2074      F2080   1.385       .  S
C2081      C2082   1.413       .  A
C2081      C2086   1.409       .  A
C2081      H2088   1.081       .  S
C2082      C2083   1.426       .  A
C2083      C2084   1.417       .  A
C2083      C2090   1.517       .  S
C2084      C2085   1.405       .  A
C2084      H2089   1.082       .  S
C2085      C2086   1.413       .  A
C2086      C2087   1.519       .  S
C2087      F2091   1.385       .  S
C2087      F2092   1.383       .  S
C2087      F2093   1.382       .  S
C2090      F2094   1.384       .  S
C2090      F2095   1.382       .  S
C2090      F2096   1.385       .  S
C2097      C2098   1.398       .  A
C2097      C2102   1.409       .  A
C2097      H2104   1.083       .  S
C2098      C2099   1.419       .  A
C2099      C2100   1.417       .  A
C2100      C2101   1.409       .  A
C2100      H2105   1.082       .  S
C2101      C2102   1.434       .  A
C2102      C2103   1.523       .  S
C2103      F2107   1.385       .  S
C2103      F2108   1.383       .  S
C2103      F2109   1.384       .  S
C2106      F2110   1.382       .  S
C2106      F2111   1.383       .  S
C2106      F2112   1.384       .  S
C2113      C2114   1.399       .  A
C2113      H2120   1.083       .  S
C2114      C2115   1.415   1_565  A
C2116      H2121   1.083       .  S
C2117      C2118   1.423   1_556  A
C2118      C2119   1.519   1_554  S
C2119      F2123   1.385       .  S
C2119      F2124   1.383       .  S
C2119      F2125   1.384       .  S
C2122      F2126   1.382       .  S
C2122      F2127   1.382       .  S
C2122      F2128   1.385       .  S
C2129      C2134   1.402       .  A
C2129      H2136   1.083       .  S
C2130      C2131   1.424       .  A
C2131      C2132   1.407       .  A
C2131      C2138   1.521       .  S
C2132      H2137   1.084       .  S
C2133      C2134   1.409       .  A
C2134      C2135   1.506       .  S
C2135      F2139   1.384       .  S
C2135      F2140   1.381       .  S
C2135      F2141   1.383       .  S
C2138      F2142   1.379       .  S
C2138      F2143   1.380       .  S
C2138      F2144   1.385       .  S
C2145      C2146   1.409       .  A
C2145      C2150   1.402   1_655  A
C2145      H2152   1.082       .  S
C2146      C2147   1.423       .  A
C2147      C2148   1.410   1_655  A
C2147      C2154   1.520       .  S
C2148      C2149   1.408       .  A
C2148      H2153   1.083       .  S
C2149      C2150   1.420       .  A
C2150      C2151   1.523       .  S
C2151      F2155   1.383       .  S
C2151      F2156   1.384       .  S
C2151      F2157   1.385       .  S
C2154      F2158   1.385       .  S
C2154      F2159   1.383       .  S
C2154      F2160   1.384       .  S
C2161      C2162   1.411       .  A
C2161      C2166   1.405       .  A
C2161      H2168   1.083       .  S
C2162      C2163   1.409       .  A
C2163      C2164   1.407       .  A
C2163      C2170   1.518       .  S
C2164      C2165   1.412       .  A
C2164      H2169   1.084       .  S
C2165      C2166   1.406       .  A
C2166      C2167   1.515       .  S
C2167      F2171   1.384       .  S
C2167      F2172   1.383       .  S
C2167      F2173   1.383       .  S
C2170      F2174   1.384       .  S
C2170      F2175   1.383       .  S
C2170      F2176   1.385       .  S
C2177      C2178   1.400       .  A
C2177      C2182   1.404       .  A
C2177      H2184   1.083       .  S
C2178      C2179   1.410       .  A
C2179      C2180   1.404       .  A
C2179      C2186   1.520       .  S
C2180      C2181   1.413       .  A
C2180      H2185   1.082       .  S
C2181      C2182   1.425       .  A
C2182      C2183   1.522       .  S
C2183      F2187   1.385       .  S
C2183      F2188   1.382       .  S
C2183      F2189   1.383       .  S
C2186      F2190   1.383       .  S
C2186      F2191   1.382       .  S
C2186      F2192   1.385       .  S
C2193      C2194   1.397       .  A
C2193      C2198   1.398   1_556  A
C2193      H2200   1.083       .  S
C2194      C2195   1.424       .  A
C2195      C2202   1.519       .  S
C2196      C2197   1.403       .  A
C2196      H2201   1.084       .  S
C2198      C2199   1.511       .  S
C2199      F2203   1.385   1_554  S
C2199      F2205   1.380       .  S
C2202      F2206   1.384       .  S
C2202      F2207   1.383       .  S
C2202      F2208   1.385       .  S
C2209      C2210   1.407       .  A
C2209      C2214   1.411       .  A
C2209      H2216   1.082       .  S
C2210      C2211   1.429       .  A
C2211      C2212   1.413       .  A
C2211      C2218   1.519       .  S
C2212      C2213   1.399       .  A
C2212      H2217   1.083       .  S
C2213      C2214   1.418       .  A
C2214      C2215   1.516       .  S
C2215      F2219   1.385       .  S
C2215      F2220   1.383   1_565  S
C2218      F2222   1.384       .  S
C2218      F2223   1.383       .  S
C2218      F2224   1.385       .  S
C2225      C2226   1.411       .  A
C2225      C2230   1.425       .  A
C2225      H2232   1.082       .  S
C2226      C2227   1.437       .  A
C2227      C2228   1.405       .  A
C2227      C2234   1.519       .  S
C2228      C2229   1.392       .  A
C2228      H2233   1.083       .  S
C2229      C2230   1.422       .  A
C2230      C2231   1.515       .  S
C2231      F2235   1.384       .  S
C2231      F2236   1.382       .  S
C2231      F2237   1.383       .  S
C2234      F2238   1.371       .  S
C2234      F2239   1.380       .  S
C2234      F2240   1.385       .  S
