geometry optimzed in LAMMPS
_audit_creation_date              2020-12-01 
_audit_creation_method            'lammps2cif' 
_symmetry_space_group_name_H-M    'P1' 
_symmetry_Int_Tables_number       1 
_symmetry_cell_setting            triclinic 
loop_ 
_symmetry_equiv_pos_as_xyz 
  x,y,z 
_cell_length_a                    43.65981273 
_cell_length_b                    32.40701476387368 
_cell_length_c                    44.572745132496365 
_cell_angle_alpha                 90.17198675665225 
_cell_angle_beta                  109.48495150432268 
_cell_angle_gamma                 91.91143180098008 
loop_ 
_atom_site_label 
_atom_site_type_symbol 
_atom_site_fract_x 
_atom_site_fract_y 
_atom_site_fract_z 
_atom_site_charge 
O1          O  0.33229482  0.88718373  0.44164910    -0.85600
O2          O  0.36221283  0.95752888  0.43088671    -0.82600
C3          C  0.37462284  0.99340120  0.43428916     0.97900
O4          O  0.38529381  0.01028606  0.46188770    -0.82700
O5          O  0.33794560  0.01192996  0.49322262    -0.85300
C6          C  0.32080957  0.99931336  0.50946648     1.02400
O7          O  0.32543304  0.96503415  0.52271288    -0.78100
O8          O  0.30564292  0.91630695  0.46956433    -0.78300
C9          C  0.30541106  0.89827929  0.44443607     1.02300
O10         O  0.39485173  0.86538775  0.48961261    -0.85600
O11         O  0.42494584  0.94042771  0.47555251    -0.82700
C12         C  0.44110471  0.96394084  0.49913801     0.97900
O13         O  0.42800961  0.97491719  0.51886962    -0.82700
O14         O  0.38059173  0.97195646  0.04908033    -0.85300
C15         C  0.38150337  0.93944711  0.06546373     1.02400
O16         O  0.37459984  0.90427449  0.05187235    -0.78100
O17         O  0.35039546  0.84550240  0.00189127    -0.78300
C18         C  0.37529062  0.84239566  0.49809782     1.02300
Cr19       Cr  0.37823200  0.91409207  0.46215599     1.93700
Cr20       Cr  0.38274387  0.99091268  0.50505412     1.93200
Cr21       Cr  0.34166545  0.91483234  0.50983418     1.39100
O22         O  0.36798012  0.93995315  0.49233876    -1.23300
O23         O  0.46477652  0.58954267  0.03915031    -0.85600
O24         O  0.44640851  0.53672458  0.98797899    -0.82600
C25         C  0.45538868  0.50577570  0.00479979     0.97900
O26         O  0.43899687  0.49104534  0.02105812    -0.82700
O27         O  0.39037196  0.48688813  0.05042476    -0.85300
C28         C  0.39953419  0.50507598  0.07721779     1.02400
O29         O  0.41090110  0.54140808  0.07990055    -0.78100
O30         O  0.43675399  0.61356273  0.06787291    -0.78300
C31         C  0.46409777  0.60552391  0.06479988     1.02300
O32         O  0.41432640  0.65252356  0.50697145    -0.85600
O33         O  0.39227064  0.59198389  0.45723379    -0.82700
C34         C  0.38700913  0.55593957  0.44476279     0.97900
O35         O  0.39041346  0.52409885  0.46217342    -0.82700
O36         O  0.34615146  0.51653950  0.99378580    -0.85300
C37         C  0.33184965  0.52944551  0.01200674     1.02400
O38         O  0.34678798  0.55446247  0.03499325    -0.78100
O39         O  0.37289086  0.63116442  0.02062392    -0.78300
C40         C  0.39027721  0.65507459  0.01008437     1.02300
Cr41       Cr  0.42741403  0.58552187  0.99909269     1.93700
Cr42       Cr  0.39241477  0.50589346  0.00786598     1.93200
Cr43       Cr  0.39228757  0.58358621  0.04822309     1.39100
O44         O  0.40339720  0.55856390  0.01830426    -1.23300
O45         O  0.15628923  0.89977602  0.34319837    -0.85600
O46         O  0.10938624  0.95761162  0.33088005    -0.82600
C47         C  0.12663093  0.99004320  0.34052000     0.97900
O48         O  0.14535433  0.00307255  0.32577568    -0.82700
O49         O  0.17971664  0.00142940  0.28131878    -0.85300
C50         C  0.20474415  0.98033170  0.29040762     1.02400
O51         O  0.20325855  0.94453637  0.30016262    -0.78100
O52         O  0.18071972  0.87155478  0.31339412    -0.78300
C53         C  0.18109837  0.88291329  0.34062693     1.02300
O54         O  0.11689874  0.85183182  0.28821134    -0.85600
O55         O  0.07247470  0.92205252  0.27284919    -0.82700
C56         C  0.06537910  0.96009119  0.26755495     0.97900
O57         O  0.08751893  0.98794502  0.27330054    -0.82700
O58         O  0.12209933  0.97974690  0.23222822    -0.85300
C59         C  0.13979574  0.96237214  0.21876798     1.02400
O60         O  0.16146206  0.93815409  0.23429752    -0.78100
O61         O  0.13494053  0.86684423  0.24948374    -0.78300
C62         C  0.12462843  0.84024939  0.26450821     1.02300
Cr63       Cr  0.11527099  0.90896576  0.30675790     1.93700
Cr64       Cr  0.13425609  0.98874608  0.27913353     1.93200
Cr65       Cr  0.16766659  0.90749320  0.27503086     1.39100
O66         O  0.13848823  0.93500958  0.28621551    -1.23300
O67         O  0.08741668  0.63517380  0.19791189    -0.85600
O68         O  0.06648508  0.56280023  0.21291501    -0.82600
C69         C  0.06467472  0.52881359  0.22525011     0.97900
O70         O  0.08926382  0.50673659  0.23395692    -0.82700
O71         O  0.12062081  0.50214799  0.18642940    -0.85300
C72         C  0.13823961  0.51353627  0.17006718     1.02400
O73         O  0.15570878  0.54632077  0.17774938    -0.78100
O74         O  0.11000362  0.60587448  0.16687900    -0.78300
C75         C  0.08606069  0.62386375  0.17030436     1.02300
O76         O  0.13559276  0.64060828  0.26088481    -0.85600
O77         O  0.10967068  0.57010337  0.27836897    -0.82700
C78         C  0.13133205  0.54561094  0.29365728     0.97900
O79         O  0.14899916  0.52884427  0.27988268    -0.82700
O80         O  0.18087225  0.51851246  0.23617265    -0.85300
C81         C  0.20302344  0.54630899  0.24032487     1.02400
O82         O  0.19562490  0.58411121  0.23459019    -0.78100
O83         O  0.15161408  0.65436167  0.22059049    -0.78300
C84         C  0.14524137  0.66663913  0.24496159     1.02300
Cr85       Cr  0.10211878  0.60002218  0.23681233     1.93700
Cr86       Cr  0.13440340  0.51824011  0.23297925     1.93200
Cr87       Cr  0.15188882  0.59652103  0.20210164     1.39100
O88         O  0.13017461  0.57173274  0.22472102    -1.23300
O89         O  0.42503120  0.38569956  0.31786506    -0.85600
O90         O  0.39827711  0.45592373  0.32895977    -0.82600
C91         C  0.39313310  0.49385567  0.32663631     0.97900
O92         O  0.38916316  0.51217731  0.30073699    -0.82700
O93         O  0.43882572  0.50762790  0.27409818    -0.85300
C94         C  0.45610439  0.49353229  0.25907321     1.02400
O95         O  0.44728431  0.46136986  0.24252577    -0.78100
O96         O  0.45752028  0.41004912  0.29280309    -0.78300
C97         C  0.45355898  0.39460596  0.31726561     1.02300
O98         O  0.36443197  0.36341717  0.26670080    -0.85600
O99         O  0.33832072  0.44095524  0.27885127    -0.82700
C100        C  0.32718684  0.46939733  0.25860654     0.97900
O101        O  0.34388231  0.48417801  0.24268220    -0.82700
O102        O  0.38991668  0.48394448  0.21332048    -0.85300
C103        C  0.38722427  0.45218639  0.19553885     1.02400
O104        O  0.39158505  0.41648530  0.20748765    -0.78100
O105        O  0.40866316  0.35589451  0.25526222    -0.78300
C106        C  0.38322381  0.34047218  0.25835353     1.02300
Cr107      Cr  0.38241406  0.41337571  0.29518870     1.93700
Cr108      Cr  0.39130325  0.49246474  0.25860659     1.93200
Cr109      Cr  0.42363499  0.41289831  0.25096906     1.39100
O110        O  0.39825125  0.43941767  0.26807090    -1.23300
O111        O  0.32416851  0.12183112  0.20916363    -0.85600
O112        O  0.30798361  0.05056079  0.23126441    -0.82600
C113        C  0.30870437  0.01607705  0.24390179     0.97900
O114        O  0.33454530  0.99675656  0.25304739    -0.82700
O115        O  0.36276046  0.98852113  0.20379230    -0.85300
C116        C  0.37808066  0.99957406  0.18516698     1.02400
O117        O  0.39323290  0.03391859  0.18938474    -0.78100
O118        O  0.34548492  0.09101928  0.17772464    -0.78300
C119        C  0.32167504  0.10876147  0.18175476     1.02300
O120        O  0.37460258  0.13769195  0.26875207    -0.85600
O121        O  0.35438766  0.06740860  0.29354441    -0.82700
C122        C  0.37651331  0.04417376  0.30964215     0.97900
O123        O  0.39361479  0.02541609  0.29610858    -0.82700
O124        O  0.42285194  0.01174968  0.25027084    -0.85300
C125        C  0.44361185  0.03909881  0.24925298     1.02400
O126        O  0.43520452  0.07616743  0.24140140    -0.78100
O127        O  0.38936811  0.14440571  0.22678124    -0.78300
C128        C  0.38387639  0.16059214  0.25042316     1.02300
Cr129      Cr  0.34294927  0.09180011  0.24990265     1.93700
Cr130      Cr  0.37772341  0.01020371  0.24947295     1.93200
Cr131      Cr  0.38944305  0.08534901  0.21140809     1.39100
O132        O  0.37089802  0.06275260  0.23778506    -1.23300
O133        O  0.19998156  0.08849133  0.05178449    -0.85600
O134        O  0.18091382  0.03704725  0.99813725    -0.82600
C135        C  0.19334023  0.00995371  0.01730000     0.97900
O136        O  0.17941320  0.99826938  0.03641166    -0.82700
O137        O  0.13627795  0.99440944  0.06984720    -0.85300
C138        C  0.13380529  0.01665345  0.09231237     1.02400
O139        O  0.13060160  0.05485001  0.08918847    -0.78100
O140        O  0.17044189  0.11618232  0.07846275    -0.78300
C141        C  0.19819575  0.10587064  0.07662600     1.02300
O142        O  0.15882582  0.15188621  0.51865248    -0.85600
O143        O  0.12934919  0.08924919  0.47058862    -0.82700
C144        C  0.12197263  0.05239883  0.45974059     0.97900
O145        O  0.12578008  0.02129837  0.47852865    -0.82700
O146        O  0.08437699  0.01094029  0.01303676    -0.85300
C147        C  0.06567613  0.03572483  0.01931531     1.02400
O148        O  0.07658162  0.07004748  0.03411495    -0.78100
O149        O  0.11154900  0.14047684  0.02328426    -0.78300
C150        C  0.13364759  0.16182335  0.01786295     1.02300
Cr151      Cr  0.16458448  0.08652540  0.01104847     1.93700
Cr152      Cr  0.13164699  0.00876356  0.02437709     1.93200
Cr153      Cr  0.12345343  0.09343183  0.05404967     1.39100
O154        O  0.13886135  0.06273312  0.02997754    -1.23300
O155        O  0.09818153  0.38304212  0.42868822    -0.85600
O156        O  0.13417959  0.44859853  0.41870310    -0.82600
C157        C  0.13373026  0.48734310  0.41817842     0.97900
O158        O  0.13437836  0.50821709  0.44255651    -0.82700
O159        O  0.08868023  0.50396141  0.47323639    -0.85300
C160        C  0.07277502  0.49035172  0.49010006     1.02400
O161        O  0.08241598  0.46034499  0.50716498    -0.78100
O162        O  0.06631175  0.41152720  0.45210605    -0.78300
C163        C  0.06987258  0.39349123  0.42825150     1.02300
O164        O  0.15634747  0.36182756  0.48426358    -0.85600
O165        O  0.18946821  0.43315832  0.47236655    -0.82700
C166        C  0.20128945  0.46461295  0.49035199     0.97900
O167        O  0.18353731  0.48666723  0.50052823    -0.82700
O168        O  0.14035446  0.47954541  0.03340469    -0.85300
C169        C  0.13921624  0.44779288  0.05029222     1.02400
O170        O  0.12974228  0.41232614  0.03739642    -0.78100
O171        O  0.10400739  0.35310520  0.98615827    -0.81500
C172        C  0.13474219  0.34030249  0.49052232     1.02300
Cr173      Cr  0.14341543  0.40859120  0.45337540     1.93700
Cr174      Cr  0.13602025  0.49100743  0.48682683     1.93200
Cr175      Cr  0.09994996  0.41224011  0.49437762     1.39100
O176        O  0.12743462  0.43757414  0.47817470    -1.23300
C177        C  0.13781345  0.29684830  0.49981528    -0.05700
C178        C  0.16036925  0.27287017  0.01048074    -0.33100
C179        C  0.16129202  0.23128961  0.01883033     0.36100
C180        C  0.13214954  0.20668666  0.01176150    -0.06100
C181        C  0.11863990  0.23926446  0.52492670    -0.33000
C182        C  0.12229911  0.28175728  0.52108760     0.36000
H183        H  0.18289284  0.29113209  0.01638534     0.16400
O184        O  0.19102069  0.21504658  0.03407911    -0.60500
H185        H  0.10786088  0.22822523  0.54219923     0.16400
O186        O  0.11110680  0.30857372  0.53863785    -0.60600
H187        H  0.08715223  0.30804391  0.52823858     0.43400
H188        H  0.19375860  0.21650474  0.05706441     0.43300
C189        C  0.29019254  0.11319710  0.15495591    -0.05700
C190        C  0.28947186  0.11317457  0.12328449    -0.33100
C191        C  0.25984418  0.11377137  0.09783354     0.36100
C192        C  0.22968356  0.11309126  0.10351251    -0.06100
C193        C  0.23043656  0.11460434  0.13521025    -0.33000
C194        C  0.26017490  0.11514156  0.16068011     0.36000
H195        H  0.31201173  0.11257382  0.11812540     0.16400
O196        O  0.26067861  0.11597061  0.06735126    -0.60500
H197        H  0.20787633  0.11381277  0.14037977     0.16400
O198        O  0.25939989  0.11505212  0.19117298    -0.60600
H199        H  0.25659825  0.14421359  0.19613985     0.43400
H200        H  0.26898281  0.08924998  0.06313553     0.43300
C201        C  0.04012656  0.38485941  0.39989679    -0.05700
C202        C  0.00919732  0.38764011  0.40314430    -0.33100
C203        C  0.48182516  0.38667472  0.37660912     0.36100
C204        C  0.48312081  0.38818871  0.34544990    -0.06100
C205        C  0.01310023  0.37663332  0.34253907    -0.33000
C206        C  0.04167352  0.37760332  0.36921749     0.36000
H207        H  0.00706765  0.39266583  0.42640044     0.16400
O208        O  0.45259299  0.38636515  0.38184902    -0.60500
H209        H  0.01511258  0.37323685  0.31908259     0.16400
O210        O  0.07103601  0.37424847  0.36465691    -0.60600
H211        H  0.07476189  0.34420550  0.36511627     0.43400
H212        H  0.44862180  0.41575848  0.38502148     0.43300
C213        C  0.38424575  0.20687101  0.25377317    -0.05700
C214        C  0.39120035  0.23159609  0.23080050    -0.33100
C215        C  0.38846293  0.27461142  0.23082148     0.36100
C216        C  0.37846695  0.29465415  0.25404815    -0.06100
C217        C  0.37103589  0.27020496  0.27685687    -0.33000
C218        C  0.37401746  0.22688923  0.27700084     0.36000
H219        H  0.39865781  0.21755431  0.21237686     0.16400
O220        O  0.39650208  0.29704723  0.20828511    -0.60500
H221        H  0.36434489  0.28485445  0.29554232     0.16400
O222        O  0.36671185  0.20456277  0.29996480    -0.60600
H223        H  0.38719361  0.20475700  0.31837671     0.43400
H224        H  0.37552010  0.30221720  0.19144784     0.43300
C225        C  0.23694491  0.53096555  0.24928156    -0.05700
C226        C  0.24313975  0.49165019  0.26336222    -0.33100
C227        C  0.27174025  0.47094292  0.26613532     0.36100
C228        C  0.29545899  0.48920549  0.25494254    -0.06100
C229        C  0.28988096  0.52928421  0.24197416    -0.33000
C230        C  0.26119952  0.55008515  0.23926396     0.36000
H231        H  0.22503482  0.47596212  0.27138643     0.16400
O232        O  0.27577986  0.43243826  0.27923401    -0.60500
H233        H  0.30791899  0.54483712  0.23379682     0.16400
O234        O  0.25643901  0.58792841  0.22509865    -0.60600
H235        H  0.26752163  0.60813956  0.24237368     0.43400
H236        H  0.26676991  0.41291119  0.26099881     0.43300
C237        C  0.48589711  0.51352316  0.25798736    -0.05700
C238        C  0.01474795  0.49396644  0.27573758    -0.33100
C239        C  0.04021864  0.49690869  0.26349881     0.36100
C240        C  0.03681618  0.52039308  0.23602936    -0.06100
C241        C  0.00838998  0.54241381  0.22247110    -0.33000
C242        C  0.48402121  0.53811898  0.23162259     0.36000
H243        H  0.01658371  0.47312515  0.29521026     0.16400
O244        O  0.06829958  0.47696998  0.27875108    -0.60500
H245        H  0.00563065  0.56162953  0.20193262     0.16400
O246        O  0.45536151  0.55564893  0.21453865    -0.60600
H247        H  0.45728992  0.58435314  0.22290194     0.43400
H248        H  0.06431140  0.44829744  0.27014816     0.43300
C249        C  0.13466769  0.50721330  0.38832460    -0.05700
C250        C  0.15729566  0.49319863  0.37473893    -0.33100
C251        C  0.15742590  0.50664122  0.34489717     0.36100
C252        C  0.13422270  0.53454563  0.32725914    -0.06100
C253        C  0.11194863  0.54945841  0.34129168    -0.33000
C254        C  0.11205590  0.53601931  0.37146770     0.36000
H255        H  0.17484567  0.47087741  0.38723582     0.16400
O256        O  0.17968458  0.49081801  0.33278952    -0.60500
H257        H  0.09361213  0.57061494  0.32840684     0.16400
O258        O  0.08905478  0.54975689  0.38347973    -0.60600
H259        H  0.07073604  0.52907822  0.37621752     0.43400
H260        H  0.19915261  0.50965206  0.34075470     0.43300
C261        C  0.14048026  0.48929298  0.14222480    -0.05700
C262        C  0.16736689  0.49751310  0.13197046    -0.33100
C263        C  0.16869109  0.48100820  0.10335429     0.36100
C264        C  0.14325455  0.45499144  0.08435664    -0.06100
C265        C  0.11766010  0.44373169  0.09572381    -0.33000
C266        C  0.11616206  0.46059422  0.12442487     0.36000
H267        H  0.18708745  0.51830857  0.14558175     0.16400
O268        O  0.19467494  0.49126601  0.09371866    -0.60500
H269        H  0.09751055  0.42423869  0.08115204     0.16400
O270        O  0.08961833  0.45130018  0.13337218    -0.60600
H271        H  0.09596908  0.42752455  0.14781029     0.43400
H272        H  0.19021659  0.51901277  0.08425332     0.43300
C273        C  0.12749205  0.79542049  0.25810038    -0.05700
C274        C  0.12896303  0.76652860  0.28197759    -0.33100
C275        C  0.13680418  0.72536238  0.27900204     0.36100
C276        C  0.14306498  0.71163841  0.25147550    -0.06100
C277        C  0.14173699  0.74058560  0.22765741    -0.33000
C278        C  0.13403087  0.78183318  0.23071573     0.36000
H279        H  0.12493236  0.77608383  0.30363382     0.16400
O280        O  0.13785584  0.69872556  0.30315652    -0.60500
H281        H  0.14574369  0.73100622  0.20599926     0.16400
O282        O  0.13322140  0.80863769  0.20673341    -0.60600
H283        H  0.11017014  0.80822722  0.19272701     0.43400
H284        H  0.16083939  0.69988928  0.31736681     0.43300
C285        C  0.12279828  0.01144070  0.36875055    -0.05700
C286        C  0.10019273  0.99410883  0.38211013    -0.33100
C287        C  0.09736900  0.00970303  0.41027187     0.36100
C288        C  0.11689945  0.04374735  0.42578298    -0.06100
C289        C  0.13779842  0.06322723  0.41144980    -0.33000
C290        C  0.14092340  0.04726954  0.38322436     0.36000
H291        H  0.08524434  0.96705638  0.37143056     0.16400
O292        O  0.07690353  0.98976532  0.42355892    -0.60500
H293        H  0.15360928  0.08904219  0.42342367     0.16400
O294        O  0.16309197  0.06548077  0.37124627    -0.60600
H295        H  0.15078433  0.08610570  0.35594819     0.43400
H296        H  0.05499867  0.99994169  0.41196365     0.43300
C297        C  0.13341682  0.99907245  0.12315265    -0.05700
C298        C  0.15241397  0.96569525  0.13730310    -0.33100
C299        C  0.15406288  0.95235710  0.16791724     0.36100
C300        C  0.13638093  0.97236738  0.18498647    -0.06100
C301        C  0.11614591  0.00422732  0.16990619    -0.33000
C302        C  0.11466465  0.01764886  0.13964821     0.36000
H303        H  0.16682140  0.95076159  0.12508980     0.16400
O304        O  0.17366224  0.92036738  0.18109593    -0.60500
H305        H  0.10183356  0.01979648  0.18190921     0.16400
O306        O  0.09418534  0.04877170  0.12610909    -0.60600
H307        H  0.10573397  0.07459874  0.13655139     0.43400
H308        H  0.15945320  0.89511222  0.17464566     0.43300
C309        C  0.47646214  0.02280747  0.25409814    -0.05700
C310        C  0.98089481  0.98377193  0.26799102    -0.33100
C311        C  0.00911930  0.96169692  0.27179556     0.36100
C312        C  0.03180778  0.97596719  0.25779289    -0.06100
C313        C  0.02550550  0.01307421  0.24039295    -0.33000
C314        C  0.49411113  0.03316941  0.23381084     0.36000
H315        H  0.96360096  0.97148412  0.27864387     0.16400
O316        O  0.01477521  0.92710431  0.29021952    -0.60500
H317        H  0.04302755  0.02549824  0.23006740     0.16400
O318        O  0.48499044  0.06518234  0.21303635    -0.60600
H319        H  0.49845343  0.08940697  0.22428965     0.43400
H320        H  0.02623792  0.93737518  0.31224061     0.43300
C321        C  0.23276521  0.99296664  0.28139873    -0.05700
C322        C  0.22645806  0.01300023  0.25218025    -0.33100
C323        C  0.25027207  0.01711933  0.23807601     0.36100
C324        C  0.28138904  0.00262579  0.25376850    -0.06100
C325        C  0.28783851  0.98244434  0.28300869    -0.33000
C326        C  0.26365152  0.97738625  0.29680774     0.36000
H327        H  0.20238587  0.02355299  0.23923398     0.16400
O328        O  0.24290092  0.03547009  0.20896280    -0.60500
H329        H  0.31196828  0.97194087  0.29579574     0.16400
O330        O  0.27024631  0.95685359  0.32502041    -0.60600
H331        H  0.27880885  0.97843516  0.34185103     0.43400
H332        H  0.23761698  0.01233286  0.19323664     0.43300
C333        C  0.49598347  0.61420018  0.09117818    -0.05700
C334        C  0.52558150  0.61039634  0.08516298    -0.33100
C335        C  0.05410262  0.62354878  0.11095708     0.36100
C336        C  0.05526714  0.62868395  0.14275021    -0.06100
C337        C  0.02562010  0.63317552  0.14846614    -0.33000
C338        C  0.99546709  0.62973827  0.12363375     0.36000
H339        H  0.52532489  0.60368975  0.06125551     0.16400
O340        O  0.08219920  0.62088469  0.10380144    -0.60500
H341        H  0.02559634  0.63699416  0.17261281     0.16400
O342        O  0.46998595  0.62590620  0.13043543    -0.60600
H343        H  0.96276456  0.60325999  0.13658783     0.43400
H344        H  0.08470639  0.59095867  0.10101438     0.43300
C345        C  0.39270783  0.48710033  0.10488652    -0.05700
C346        C  0.40321524  0.44807343  0.11670865    -0.33100
C347        C  0.39916240  0.43414172  0.14514537     0.36100
C348        C  0.38397145  0.45921870  0.16171274    -0.06100
C349        C  0.37124078  0.49660690  0.14817623    -0.33000
C350        C  0.37581886  0.51076114  0.12041612     0.36000
H351        H  0.41606900  0.42944985  0.10491040     0.16400
O352        O  0.41269496  0.39787889  0.15788834    -0.60500
H353        H  0.35923277  0.51627341  0.16018455     0.16400
O354        O  0.36381332  0.54820674  0.10865943    -0.60600
H355        H  0.38009239  0.56916133  0.12135994     0.43400
H356        H  0.39531130  0.37631008  0.14902769     0.43300
C357        C  0.38835745  0.51527221  0.35406544    -0.05700
C358        C  0.40663028  0.55096900  0.36820523    -0.33100
C359        C  0.40410881  0.56756482  0.39655113     0.36100
C360        C  0.38273550  0.54867233  0.41073011    -0.06100
C361        C  0.36307509  0.51468501  0.39521555    -0.33000
C362        C  0.36570425  0.49810688  0.36725310     0.36000
H363        H  0.42419800  0.56446444  0.35839135     0.16400
O364        O  0.42513525  0.59924658  0.41194446    -0.60500
H365        H  0.34688814  0.49934074  0.40588681     0.16400
O366        O  0.34684520  0.46383186  0.35361104    -0.60600
H367        H  0.32717943  0.47471601  0.33759572     0.43400
H368        H  0.41392802  0.62480559  0.40309499     0.43300
C369        C  0.23612895  0.47898394  0.49795335    -0.05700
C370        C  0.25233553  0.47109372  0.47628496    -0.33100
C371        C  0.28286170  0.48995951  0.47981365     0.36100
C372        C  0.29830277  0.51143352  0.00726861    -0.06100
C373        C  0.28269749  0.51881246  0.02959547    -0.33000
C374        C  0.25220311  0.49979608  0.02637362     0.36000
H375        H  0.24079233  0.45125469  0.45572085     0.16400
O376        O  0.29694433  0.48144639  0.45730044    -0.60500
H377        H  0.29411348  0.53941028  0.04970347     0.16400
O378        O  0.23786165  0.50841408  0.04866442    -0.60600
H379        H  0.22889722  0.53620383  0.04334056     0.43400
H380        H  0.30723925  0.45450571  0.46340608     0.43300
C381        C  0.48573800  0.49058811  0.00439095    -0.05700
C382        C  0.51328929  0.51110365  0.02531564    -0.33100
C383        C  0.04174163  0.51655840  0.52112417     0.36100
C384        C  0.04237637  0.50495926  0.49085343    -0.06100
C385        C  0.01467013  0.48640474  0.46861673    -0.33000
C386        C  0.48635585  0.47525191  0.97503711     0.36000
H387        H  0.51250925  0.52484323  0.04725083     0.16400
O388        O  0.06931774  0.53211726  0.54403918    -0.60500
H389        H  0.01546082  0.47508817  0.44597276     0.16400
O390        O  0.45895707  0.45715464  0.95344228    -0.60600
H391        H  0.46075863  0.42714841  0.95767951     0.43400
H392        H  0.06905500  0.56236144  0.54084274     0.43300
C393        C  0.27296923  0.89036513  0.41882567    -0.05700
C394        C  0.27002652  0.86684928  0.39136891    -0.33100
C395        C  0.23985490  0.86144064  0.36666848     0.36100
C396        C  0.21168799  0.88015986  0.36871223    -0.06100
C397        C  0.21435687  0.90181481  0.39676895    -0.33000
C398        C  0.24426920  0.90716331  0.42140930     0.36000
H399        H  0.29126275  0.85302514  0.38876483     0.16400
O400        O  0.23855502  0.83877802  0.34022397    -0.60500
H401        H  0.19337845  0.91655693  0.39921420     0.16400
O402        O  0.24505588  0.92974294  0.44775712    -0.60600
H403        H  0.24079542  0.95839680  0.44024951     0.43400
H404        H  0.23043007  0.81085388  0.34365282     0.43300
C405        C  0.37922441  0.79718856  0.50217612    -0.05700
C406        C  0.39543584  0.76572359  0.98362627    -0.33100
C407        C  0.39704173  0.72262332  0.98469007     0.36100
C408        C  0.38409636  0.69968329  0.00499989    -0.06100
C409        C  0.36909296  0.72080569  0.02344490    -0.33000
C410        C  0.36140591  0.77340938  0.51789514     0.36000
H411        H  0.40501857  0.78249716  0.96751260     0.16400
O412        O  0.41142703  0.70323329  0.96570977    -0.60500
H413        H  0.35018623  0.71289726  0.53195574     0.16400
O414        O  0.34215619  0.79194027  0.53243725    -0.60600
H415        H  0.35671657  0.79849824  0.55441229     0.43400
H416        H  0.39339264  0.69572337  0.94585371     0.43300
C417        C  0.03066408  0.02096952  0.00988571    -0.05700
C418        C  0.02341177  0.98856088  0.48955828    -0.33100
C419        C  0.48952424  0.97844770  0.47987118     0.36100
C420        C  0.47399189  0.98370915  0.50262096    -0.06100
C421        C  0.48551374  0.00206026  0.02798127    -0.33000
C422        C  0.01169291  0.02786590  0.02931988     0.36000
H423        H  0.03982088  0.97634805  0.47838606     0.16400
O424        O  0.47694837  0.95099804  0.45500428    -0.60500
H425        H  0.47443488  0.00654930  0.04611377     0.16400
O426        O  0.02339982  0.05304030  0.05575761    -0.60600
H427        H  0.01309742  0.07986467  0.04918693     0.43400
H428        H  0.99148657  0.91255214  0.47278872     0.43300
C429        C  0.29356560  0.02082819  0.51278335    -0.05700
C430        C  0.28264565  0.00571221  0.03945717    -0.33100
C431        C  0.25230137  0.00341400  0.04347337     0.36100
C432        C  0.22443082  0.99679515  0.01675013    -0.06100
C433        C  0.23590592  0.02260886  0.48732111    -0.33000
C434        C  0.26694292  0.02595499  0.48537162     0.36000
H435        H  0.30434454  0.00850916  0.06032130     0.16400
O436        O  0.24995543  0.01004331  0.07304584    -0.60500
H437        H  0.21541385  0.02480370  0.46548647     0.16400
O438        O  0.27080765  0.02927489  0.45615207    -0.60600
H439        H  0.27510868  0.05913004  0.45385169     0.43400
H440        H  0.25551166  0.98353609  0.08426515     0.43300
C441        C  0.38391313  0.94449551  0.09928263    -0.05700
C442        C  0.35598611  0.93655539  0.10790194    -0.33100
C443        C  0.35408514  0.95141502  0.13701875     0.36100
C444        C  0.38062456  0.97390880  0.15826452    -0.06100
C445        C  0.40937973  0.97881433  0.15047692    -0.33000
C446        C  0.41091170  0.96509700  0.12117393     0.36000
H447        H  0.33455160  0.92185528  0.09084159     0.16400
O448        O  0.32512853  0.94790772  0.14268533    -0.60500
H449        H  0.43024332  0.99601154  0.16637554     0.16400
O450        O  0.43801990  0.97470161  0.11317484    -0.60600
H451        H  0.45421905  0.95432888  0.12437793     0.43400
H452        H  0.32448774  0.91970356  0.15104873     0.43300
C453        C  0.37957798  0.01228484  0.40560707    -0.05700
C454        C  0.36217967  0.04629152  0.39049366    -0.33100
C455        C  0.36225531  0.05842210  0.36006921     0.36100
C456        C  0.38016165  0.03659015  0.34405262    -0.06100
C457        C  0.39892374  0.00400741  0.36022642    -0.33000
C458        C  0.39831309  0.99153435  0.39023062     0.36000
H459        H  0.34713191  0.06218359  0.40149764     0.16400
O460        O  0.34335823  0.09046564  0.34564778    -0.60500
H461        H  0.41287017  0.98651719  0.34889829     0.16400
O462        O  0.41556024  0.95795819  0.40408189    -0.60600
H463        H  0.40132431  0.93356431  0.39442201     0.43400
H464        H  0.35749644  0.11564973  0.35280194     0.43300
O465        O  0.32982431  0.87597726  0.94071622    -0.85600
O466        O  0.35801042  0.94686557  0.92915014    -0.82600
C467        C  0.36849247  0.98364357  0.93206002     0.97900
O468        O  0.37811314  0.00107971  0.95939579    -0.82700
O469        O  0.33095302  0.99783719  0.99088676    -0.85300
C470        C  0.31461645  0.98381793  0.00745388     1.02400
O471        O  0.32199202  0.95120537  0.02251638    -0.78100
O472        O  0.30241383  0.90074030  0.96980134    -0.78300
C473        C  0.30266854  0.88481755  0.94401637     1.02300
O474        O  0.39332993  0.85553840  0.98798901    -0.85600
O475        O  0.42136542  0.93177903  0.97434945    -0.82700
C476        C  0.43690241  0.95639948  0.99744747     0.97900
O477        O  0.42311083  0.96918237  0.01615711    -0.82700
O478        O  0.38481592  0.98114502  0.55095854    -0.85300
C479        C  0.38356438  0.94821262  0.56628703     1.02400
O480        O  0.37588821  0.91380055  0.55183393    -0.78100
O481        O  0.35037439  0.85739723  0.50114747    -0.78300
C482        C  0.37519225  0.83176506  0.99771063     1.02300
Cr483      Cr  0.37519306  0.90407212  0.96088042     1.93700
Cr484      Cr  0.37694983  0.98110628  0.00276838     1.93200
Cr485      Cr  0.33967143  0.90226775  0.00986744     1.39100
O486        O  0.36453090  0.92903103  0.99123741    -1.23300
O487        O  0.46347390  0.60104419  0.53985609    -0.85600
O488        O  0.44710918  0.55088505  0.48741269    -0.82600
C489        C  0.45768994  0.52016942  0.50363697     0.97900
O490        O  0.44271288  0.50432044  0.52083242    -0.82700
O491        O  0.39482876  0.49450977  0.55096476    -0.85300
C492        C  0.40030259  0.51288670  0.57736755     1.02400
O493        O  0.40747285  0.55083672  0.58023667    -0.78100
O494        O  0.43482863  0.62275957  0.56885957    -0.78300
C495        C  0.46237206  0.61568683  0.56575525     1.02300
O496        O  0.41513861  0.64189343  0.00570507    -0.85600
O497        O  0.39204496  0.58102413  0.95730493    -0.82700
C498        C  0.38577475  0.54524749  0.94466275     0.97900
O499        O  0.38896011  0.51345690  0.96203804    -0.82700
O500        O  0.34790415  0.52047124  0.49493485    -0.85300
C501        C  0.33210930  0.53560994  0.51109246     1.02400
O502        O  0.34537649  0.56312042  0.53268039    -0.78100
O503        O  0.37125163  0.64075549  0.51991331    -0.78300
C504        C  0.38900401  0.66526128  0.51032295     1.02300
Cr505      Cr  0.42690377  0.59711299  0.49956076     1.93700
Cr506      Cr  0.39507449  0.51510078  0.50827941     1.93200
Cr507      Cr  0.39043285  0.59276576  0.54765255     1.39100
O508        O  0.40324618  0.56837836  0.51838434    -1.23300
O509        O  0.15410773  0.89567920  0.84102112    -0.85600
O510        O  0.10634089  0.95307713  0.82885764    -0.82600
C511        C  0.12293330  0.98611495  0.83782175     0.97900
O512        O  0.14104851  0.99958916  0.82260760    -0.82700
O513        O  0.17504863  0.99895244  0.77816621    -0.85300
C514        C  0.20029178  0.97837984  0.78718800     1.02400
O515        O  0.19937003  0.94265994  0.79736449    -0.78100
O516        O  0.17780388  0.86846122  0.81029526    -0.78300
C517        C  0.17890431  0.87936441  0.83783516     1.02300
O518        O  0.11402914  0.84807650  0.78527216    -0.85600
O519        O  0.06883663  0.91767552  0.77107934    -0.82700
C520        C  0.06150498  0.95562456  0.76533764     0.97900
O521        O  0.08345350  0.98354794  0.77049268    -0.82700
O522        O  0.11811313  0.97640114  0.72910508    -0.85300
C523        C  0.13710460  0.96063870  0.71636039     1.02400
O524        O  0.15829374  0.93595004  0.73192205    -0.78100
O525        O  0.13219998  0.86350583  0.74662215    -0.78300
C526        C  0.12181098  0.83673127  0.76150186     1.02300
Cr527      Cr  0.11234714  0.90482498  0.80449275     1.93700
Cr528      Cr  0.12995748  0.98516521  0.77610074     1.93200
Cr529      Cr  0.16440020  0.90476709  0.77225962     1.39100
O530        O  0.13487187  0.93148311  0.78345084    -1.23300
O531        O  0.08853521  0.63044822  0.69803481    -0.85600
O532        O  0.06751930  0.55876600  0.71354650    -0.82600
C533        C  0.06553245  0.52440194  0.72524391     0.97900
O534        O  0.09034874  0.50275907  0.73489784    -0.82700
O535        O  0.12207407  0.49805449  0.68771451    -0.85300
C536        C  0.14001168  0.50938565  0.67167410     1.02400
O537        O  0.15790470  0.54175023  0.67982488    -0.78100
O538        O  0.11188898  0.60086040  0.66773893    -0.78300
C539        C  0.08775766  0.61897234  0.67060364     1.02300
O540        O  0.13655222  0.63670055  0.76124925    -0.85600
O541        O  0.11078549  0.56642673  0.77932101    -0.82700
C542        C  0.13270061  0.54212795  0.79454286     0.97900
O543        O  0.15025905  0.52551277  0.78068120    -0.82700
O544        O  0.18243882  0.51459287  0.73788433    -0.85300
C545        C  0.20436399  0.54280680  0.74236756     1.02400
O546        O  0.19669435  0.58050789  0.73658813    -0.78100
O547        O  0.15228283  0.65052331  0.72091131    -0.78300
C548        C  0.14529687  0.66296539  0.74488452     1.02300
Cr549      Cr  0.10315914  0.59596951  0.73742777     1.93700
Cr550      Cr  0.13569392  0.51428287  0.73416990     1.93200
Cr551      Cr  0.15338776  0.59227420  0.70339481     1.39100
O552        O  0.13135153  0.56762896  0.72568731    -1.23300
O553        O  0.42690798  0.38305672  0.81702949    -0.85600
O554        O  0.40323369  0.45504499  0.82828615    -0.82600
C555        C  0.39356449  0.49124613  0.82559959     0.97900
O556        O  0.38656072  0.50915790  0.79915838    -0.82700
O557        O  0.43741023  0.50812412  0.77305203    -0.85300
C558        C  0.45568847  0.49405024  0.75903142     1.02400
O559        O  0.44836653  0.46109708  0.74320162    -0.78100
O560        O  0.45907186  0.40848659  0.79235561    -0.78300
C561        C  0.45540818  0.39240722  0.81671070     1.02300
O562        O  0.36518623  0.36362302  0.76692491    -0.85600
O563        O  0.34076457  0.44035893  0.78087849    -0.82700
C564        C  0.32793259  0.46603976  0.75887860     0.97900
O565        O  0.34326471  0.47843128  0.74091535    -0.82700
O566        O  0.39040107  0.48312998  0.71230095    -0.85300
C567        C  0.38909228  0.45183825  0.69451258     1.02400
O568        O  0.39371787  0.41604712  0.70629803    -0.78100
O569        O  0.40855060  0.35510127  0.75377157    -0.78300
C570        C  0.38304248  0.34052309  0.75749780     1.02300
Cr571      Cr  0.38475248  0.41229860  0.79546548     1.93700
Cr572      Cr  0.39041167  0.49042619  0.75726623     1.93200
Cr573      Cr  0.42491133  0.41189769  0.75033069     1.39100
O574        O  0.39922910  0.43790670  0.76729542    -1.23300
O575        O  0.32318136  0.12589562  0.71049050    -0.85600
O576        O  0.30427235  0.05543633  0.73174398    -0.82600
C577        C  0.30426916  0.01963785  0.74214777     0.97900
O578        O  0.32961801  0.99931910  0.75035517    -0.82700
O579        O  0.35888077  0.99167724  0.70257502    -0.85300
C580        C  0.37517217  0.00255523  0.68486712     1.02400
O581        O  0.39113179  0.03624526  0.69005613    -0.78100
O582        O  0.34401921  0.09481848  0.67860486    -0.78300
C583        C  0.32075726  0.11370428  0.68285128     1.02300
O584        O  0.37381733  0.13896581  0.77029091    -0.85600
O585        O  0.35113264  0.06876598  0.79409969    -0.82700
C586        C  0.37183299  0.04321656  0.80934193     0.97900
O587        O  0.38854044  0.02445943  0.79541423    -0.82700
O588        O  0.41909262  0.01206673  0.75062929    -0.85300
C589        C  0.44038605  0.03926086  0.75062329     1.02400
O590        O  0.43256126  0.07658757  0.74317642    -0.78100
O591        O  0.38815123  0.14556821  0.72812113    -0.78300
C592        C  0.38292638  0.16175307  0.75177071     1.02300
Cr593      Cr  0.34079286  0.09461242  0.75085604     1.93700
Cr594      Cr  0.37343660  0.01157078  0.74854558     1.93200
Cr595      Cr  0.38748845  0.08713816  0.71251915     1.39100
O596        O  0.36792079  0.06461463  0.73810527    -1.23300
O597        O  0.20117608  0.09820923  0.55201041    -0.85600
O598        O  0.18205697  0.04651883  0.49728943    -0.82600
C599        C  0.19809610  0.02270004  0.51721486     0.97900
O600        O  0.18568912  0.00914364  0.53711198    -0.82700
O601        O  0.14480826  0.00223703  0.57302429    -0.85300
C602        C  0.13808736  0.02310085  0.59394317     1.02400
O603        O  0.13055545  0.06015103  0.58933566    -0.78100
O604        O  0.17070069  0.12292055  0.57919108    -0.78300
C605        C  0.19876765  0.11446181  0.57709556     1.02300
O606        O  0.15865942  0.14465067  0.01812532    -0.85600
O607        O  0.12924580  0.08291954  0.96975629    -0.82700
C608        C  0.12103767  0.04657450  0.95830686     0.97900
O609        O  0.12344924  0.01522882  0.97657792    -0.82700
O610        O  0.08922857  0.01323654  0.51789336    -0.85300
C611        C  0.06890485  0.03825838  0.52119326     1.02400
O612        O  0.07811679  0.07451452  0.53317342    -0.78100
O613        O  0.11176970  0.14650054  0.52369386    -0.78300
C614        C  0.13291097  0.16767716  0.51658262     1.02300
Cr615      Cr  0.16543495  0.09462822  0.51133249     1.93700
Cr616      Cr  0.13686678  0.01528824  0.52683634     1.93200
Cr617      Cr  0.12419743  0.09923121  0.55435032     1.39100
O618        O  0.14104199  0.06952145  0.53097783    -1.23300
O619        O  0.09771600  0.38170540  0.92810938    -0.85600
O620        O  0.13757109  0.44454678  0.92054949    -0.82600
C621        C  0.13641837  0.48323009  0.91921714     0.97900
O622        O  0.13570372  0.50457935  0.94283451    -0.82700
O623        O  0.08993234  0.50329314  0.97256271    -0.85300
C624        C  0.07333713  0.49121758  0.98913272     1.02400
O625        O  0.08139031  0.46060678  0.00595894    -0.78100
O626        O  0.06541409  0.41144385  0.95055571    -0.78300
C627        C  0.06940472  0.39314056  0.92695021     1.02300
O628        O  0.15292732  0.35685577  0.98517485    -0.85600
O629        O  0.18990463  0.42609161  0.97590188    -0.82700
C630        C  0.20173062  0.45843484  0.99279602     0.97900
O631        O  0.18389110  0.48245444  0.00112479    -0.82700
O632        O  0.14064352  0.48187791  0.53370493    -0.85300
C633        C  0.14085319  0.44960040  0.55050427     1.02400
O634        O  0.13272866  0.41406410  0.53748569    -0.78100
O635        O  0.10801511  0.35529628  0.48684961    -0.81500
C636        C  0.12965791  0.33576360  0.98876327     1.02300
Cr637      Cr  0.14334028  0.40437031  0.95474679     1.93700
Cr638      Cr  0.13662026  0.48814461  0.98685564     1.93200
Cr639      Cr  0.09795589  0.41118745  0.99358697     1.39100
O640        O  0.12695603  0.43479015  0.97840595    -1.23300
C641        C  0.13071399  0.29103064  0.99547187    -0.05700
C642        C  0.14934087  0.26897228  0.48257237    -0.33100
C643        C  0.14559377  0.22650365  0.48631789     0.36100
C644        C  0.13016537  0.21135913  0.50767013    -0.06100
C645        C  0.10243377  0.22484377  0.99689735    -0.33000
C646        C  0.10150342  0.26647127  0.98847603     0.36000
H647        H  0.16002897  0.28002094  0.46523027     0.16400
O648        O  0.15646224  0.19977305  0.46844983    -0.60500
H649        H  0.07995010  0.20648499  0.99093423     0.16400
O650        O  0.07178493  0.28265925  0.97305901    -0.60600
H651        H  0.06862242  0.27968647  0.95005249     0.43400
H652        H  0.18044106  0.20016386  0.47862377     0.43300
C653        C  0.28977786  0.12036114  0.65605016    -0.05700
C654        C  0.28960486  0.12338156  0.62462901    -0.33100
C655        C  0.26019366  0.12506136  0.59900601     0.36100
C656        C  0.22986023  0.12222528  0.60425832    -0.06100
C657        C  0.23011907  0.12160473  0.63580274    -0.33000
C658        C  0.25958607  0.12126984  0.66147869     0.36000
H659        H  0.31235574  0.12407633  0.61981607     0.16400
O660        O  0.26138349  0.13000208  0.56882861    -0.60500
H661        H  0.20739194  0.11947428  0.64063329     0.16400
O662        O  0.25836797  0.11892994  0.69176732    -0.60600
H663        H  0.25562738  0.14765949  0.69783382     0.43400
H664        H  0.26848957  0.10333696  0.56302232     0.43300
C665        C  0.04003713  0.38495772  0.89808762    -0.05700
C666        C  0.00901830  0.38368789  0.90136033    -0.33100
C667        C  0.48334658  0.38057752  0.87588197     0.36100
C668        C  0.48509151  0.38567514  0.84505334    -0.06100
C669        C  0.01327141  0.38103850  0.84039369    -0.33000
C670        C  0.04187733  0.38188065  0.86714998     0.36000
H671        H  0.00676234  0.38530978  0.92481569     0.16400
O672        O  0.45388287  0.37805730  0.88063062    -0.60500
H673        H  0.01547231  0.38091378  0.81688997     0.16400
O674        O  0.07142847  0.38261499  0.86257673    -0.60600
H675        H  0.07716831  0.35325099  0.86270681     0.43400
H676        H  0.44982080  0.40661397  0.88603670     0.43300
C677        C  0.38288005  0.20785302  0.75425107    -0.05700
C678        C  0.38756782  0.23160698  0.72961406    -0.33100
C679        C  0.38470193  0.27450652  0.72901737     0.36100
C680        C  0.37717209  0.29518245  0.75338790    -0.06100
C681        C  0.37139012  0.27171634  0.77751555    -0.33000
C682        C  0.37427041  0.22850444  0.77816213     0.36000
H683        H  0.39332449  0.21692435  0.71038398     0.16400
O684        O  0.39026505  0.29623289  0.70484172    -0.60500
H685        H  0.36629360  0.28709982  0.79685462     0.16400
O686        O  0.36864511  0.20693487  0.80233054    -0.60600
H687        H  0.38959712  0.20856812  0.82019461     0.43400
H688        H  0.36867285  0.29767243  0.68803938     0.43300
C689        C  0.23842497  0.52833497  0.75123326    -0.05700
C690        C  0.24649105  0.49172460  0.76887047    -0.33100
C691        C  0.27500323  0.47080666  0.77140107     0.36100
C692        C  0.29637482  0.48592665  0.75591243    -0.06100
C693        C  0.28879199  0.52338828  0.73920995    -0.33000
C694        C  0.26044440  0.54452135  0.73700903     0.36000
H695        H  0.22988883  0.47832062  0.77991431     0.16400
O696        O  0.28125726  0.43520086  0.78859004    -0.60500
H697        H  0.30495225  0.53658946  0.72760646     0.16400
O698        O  0.25346633  0.57936115  0.71896753    -0.60600
H699        H  0.26270338  0.60263820  0.73413597     0.43400
H700        H  0.27133975  0.41260508  0.77296602     0.43300
C701        C  0.48513259  0.51484475  0.75801229    -0.05700
C702        C  0.01276854  0.49473383  0.77385429    -0.33100
C703        C  0.03920054  0.49591380  0.76291625     0.36100
C704        C  0.03648145  0.51494200  0.73377680    -0.06100
C705        C  0.00721831  0.53303205  0.71630145    -0.33000
C706        C  0.48277076  0.53812757  0.73086723     0.36000
H707        H  0.01443728  0.47761543  0.79518189     0.16400
O708        O  0.06770368  0.47913423  0.78123876    -0.60500
H709        H  0.00485713  0.54838060  0.69409904     0.16400
O710        O  0.45400661  0.55538023  0.71372478    -0.60600
H711        H  0.45465577  0.58291013  0.72372258     0.43400
H712        H  0.06552160  0.44952327  0.77495720     0.43300
C713        C  0.13729268  0.50250044  0.88911828    -0.05700
C714        C  0.15564463  0.48360587  0.87269100    -0.33100
C715        C  0.15553886  0.49737652  0.84294472     0.36100
C716        C  0.13625561  0.53061767  0.82814171    -0.06100
C717        C  0.11849458  0.55048017  0.84500751    -0.33000
C718        C  0.11909164  0.53684849  0.87529155     0.36000
H719        H  0.17006403  0.45732644  0.88287371     0.16400
O720        O  0.17328994  0.47648231  0.82798092    -0.60500
H721        H  0.10348184  0.57607733  0.83440719     0.16400
O722        O  0.10088628  0.55633663  0.89049747    -0.60600
H723        H  0.08007889  0.54000741  0.88472527     0.43400
H724        H  0.19516211  0.49038587  0.83532427     0.43300
C725        C  0.14202589  0.48581428  0.64355943    -0.05700
C726        C  0.16978519  0.49267713  0.63442816    -0.33100
C727        C  0.17080005  0.47828635  0.60512311     0.36100
C728        C  0.14425072  0.45551980  0.58448315    -0.06100
C729        C  0.11761545  0.44535215  0.59462134    -0.33000
C730        C  0.11636283  0.46027608  0.62392975     0.36000
H731        H  0.19040170  0.51108948  0.64944946     0.16400
O732        O  0.19760816  0.48741358  0.59652299    -0.60500
H733        H  0.09667244  0.42829448  0.57875133     0.16400
O734        O  0.08888386  0.45262193  0.63171170    -0.60600
H735        H  0.09328304  0.42735310  0.64473126     0.43400
H736        H  0.19441318  0.51564428  0.58775441     0.43300
C737        C  0.12459151  0.79182855  0.75494772    -0.05700
C738        C  0.12212155  0.76243555  0.77722333    -0.33100
C739        C  0.13037648  0.72125099  0.77520072     0.36100
C740        C  0.14122348  0.70790290  0.75025215    -0.06100
C741        C  0.14315243  0.73713068  0.72760673    -0.33000
C742        C  0.13492186  0.77842846  0.72968752     0.36000
H743        H  0.11465289  0.77158567  0.79706336     0.16400
O744        O  0.12715515  0.69421259  0.79766728    -0.60500
H745        H  0.15051086  0.72784282  0.70773052     0.16400
O746        O  0.13769924  0.80551241  0.70707268    -0.60600
H747        H  0.11561158  0.80612020  0.69103291     0.43400
H748        H  0.14834423  0.69605010  0.81517893     0.43300
C749        C  0.11939009  0.00763046  0.86606492    -0.05700
C750        C  0.09635118  0.99117562  0.87922406    -0.33100
C751        C  0.09454880  0.00614681  0.90795630     0.36100
C752        C  0.11555771  0.03868166  0.92418335    -0.06100
C753        C  0.13666244  0.05768582  0.90990070    -0.33000
C754        C  0.13872243  0.04236512  0.88108274     0.36000
H755        H  0.08035747  0.96518741  0.86795015     0.16400
O756        O  0.07349384  0.98701944  0.92093860    -0.60500
H757        H  0.15337804  0.08251093  0.92228419     0.16400
O758        O  0.16113523  0.05987979  0.86909402    -0.60600
H759        H  0.14925547  0.08110846  0.85413512     0.43400
H760        H  0.05468378  0.00520004  0.91611545     0.43300
C761        C  0.13718734  0.00454965  0.62427341    -0.05700
C762        C  0.15971639  0.97561451  0.64064502    -0.33100
C763        C  0.15956552  0.96017781  0.67014006     0.36100
C764        C  0.13624752  0.97322011  0.68373768    -0.06100
C765        C  0.11316727  0.00116183  0.66667289    -0.33000
C766        C  0.11362521  0.01694279  0.63757846     0.36000
H767        H  0.17811112  0.96584298  0.63104664     0.16400
O768        O  0.18318950  0.93358646  0.68592516    -0.60500
H769        H  0.09488726  0.01164125  0.67616372     0.16400
O770        O  0.09023321  0.04392424  0.62187492    -0.60600
H771        H  0.09776432  0.07107031  0.63259717     0.43400
H772        H  0.17426168  0.90571626  0.67762711     0.43300
C773        C  0.47320822  0.02281228  0.75570589    -0.05700
C774        C  0.97898935  0.98411612  0.76840361    -0.33100
C775        C  0.00604374  0.96005324  0.77119283     0.36100
C776        C  0.02798464  0.97183899  0.75559310    -0.06100
C777        C  0.02178949  0.00819066  0.73718350    -0.33000
C778        C  0.49110251  0.03382927  0.73579345     0.36000
H779        H  0.96219688  0.97371661  0.78027766     0.16400
O780        O  0.01134010  0.92593427  0.79012062    -0.60500
H781        H  0.03872239  0.01870099  0.72550129     0.16400
O782        O  0.48239995  0.06660524  0.71571313    -0.60600
H783        H  0.49460077  0.09085283  0.72822474     0.43400
H784        H  0.02229898  0.93670443  0.81208643     0.43300
C785        C  0.22786623  0.99164541  0.77775375    -0.05700
C786        C  0.22127765  0.01231331  0.74869403    -0.33100
C787        C  0.24536225  0.01852060  0.73508132     0.36100
C788        C  0.27667812  0.00480216  0.75091796    -0.06100
C789        C  0.28317083  0.98352607  0.77968389    -0.33000
C790        C  0.25897851  0.97697283  0.79317092     0.36000
H791        H  0.19701491  0.02224863  0.73574940     0.16400
O792        O  0.23814431  0.03820544  0.70648790    -0.60500
H793        H  0.30746324  0.97362983  0.79258279     0.16400
O794        O  0.26592516  0.95626232  0.82131889    -0.60600
H795        H  0.27459915  0.97775272  0.83820799     0.43400
H796        H  0.23245964  0.01578355  0.69013847     0.43300
C797        C  0.49426708  0.62335549  0.59227338    -0.05700
C798        C  0.52353446  0.61586224  0.58648338    -0.33100
C799        C  0.05593204  0.61320641  0.61132142     0.36100
C800        C  0.05749168  0.62409187  0.64249345    -0.06100
C801        C  0.02842751  0.63505049  0.64730207    -0.33000
C802        C  0.99828894  0.63267049  0.62240169     0.36000
H803        H  0.52306246  0.60755207  0.56276906     0.16400
O804        O  0.08347187  0.60355945  0.60485357    -0.60500
H805        H  0.02869105  0.64361931  0.67089691     0.16400
O806        O  0.46904049  0.64232112  0.63081711    -0.60600
H807        H  0.96366606  0.61623493  0.63681999     0.43400
H808        H  0.08402539  0.57299696  0.60555496     0.43300
C809        C  0.39438719  0.49194607  0.60462992    -0.05700
C810        C  0.40998668  0.45587012  0.61804287    -0.33100
C811        C  0.40629870  0.43979741  0.64613362     0.36100
C812        C  0.38657069  0.45973171  0.66090322    -0.06100
C813        C  0.36930447  0.49392127  0.64594843    -0.33000
C814        C  0.37312827  0.51001475  0.61831432     0.36000
H815        H  0.42628596  0.44145542  0.60775847     0.16400
O816        O  0.42435793  0.40703832  0.66042335    -0.60500
H817        H  0.35390980  0.50964107  0.65666364     0.16400
O818        O  0.35595359  0.54383335  0.60478906    -0.60600
H819        H  0.36837511  0.56793461  0.61733092     0.43400
H820        H  0.41058452  0.38216347  0.65108094     0.43300
C821        C  0.38678193  0.50984874  0.85290943    -0.05700
C822        C  0.39863606  0.54950125  0.86471789    -0.33100
C823        C  0.39560245  0.56383109  0.89342572     0.36100
C824        C  0.38025280  0.53838045  0.91033571    -0.06100
C825        C  0.36570371  0.50053239  0.89659317    -0.33000
C826        C  0.36895787  0.48620475  0.86833858     0.36000
H827        H  0.41199237  0.56822940  0.85283515     0.16400
O828        O  0.41058827  0.60073190  0.90624450    -0.60500
H829        H  0.35351512  0.48060431  0.90890415     0.16400
O830        O  0.35582571  0.44797615  0.85669592    -0.60600
H831        H  0.33315802  0.45296250  0.84315540     0.43400
H832        H  0.39437749  0.62184629  0.89673026     0.43300
C833        C  0.23669633  0.47194788  0.00075767    -0.05700
C834        C  0.25273342  0.46354290  0.97909831    -0.33100
C835        C  0.28287527  0.48286193  0.98196788     0.36100
C836        C  0.29826817  0.51792067  0.50551388    -0.06100
C837        C  0.28238426  0.52494675  0.52767538    -0.33000
C838        C  0.25177560  0.50601601  0.52407350     0.36000
H839        H  0.24114859  0.44328738  0.95879767     0.16400
O840        O  0.29649100  0.47421136  0.95911710    -0.60500
H841        H  0.29383975  0.54490610  0.54817294     0.16400
O842        O  0.23763328  0.51359450  0.54669621    -0.60600
H843        H  0.22869752  0.54149308  0.54203042     0.43400
H844        H  0.30697747  0.44738178  0.96522698     0.43300
C845        C  0.48791665  0.50664481  0.50126657    -0.05700
C846        C  0.51564576  0.51109463  0.52814365    -0.33100
C847        C  0.04326612  0.52298806  0.01892937     0.36100
C848        C  0.04349877  0.50814693  0.98929879    -0.06100
C849        C  0.01563893  0.48834553  0.96829238    -0.33000
C850        C  0.49075660  0.50605429  0.47056231     0.36000
H851        H  0.51360071  0.51386442  0.55164536     0.16400
O852        O  0.07091015  0.54058043  0.04051464    -0.60500
H853        H  0.01606745  0.47504003  0.94607942     0.16400
O854        O  0.46362740  0.50412582  0.44375618    -0.60600
H855        H  0.45862359  0.47424870  0.43905670     0.43400
H856        H  0.06913253  0.57070011  0.03680692     0.43300
C857        C  0.27066236  0.87773079  0.91743545    -0.05700
C858        C  0.26992290  0.87377181  0.88582943    -0.33100
C859        C  0.24035745  0.87226594  0.86017986     0.36100
C860        C  0.21012506  0.87521193  0.86538317    -0.06100
C861        C  0.21072844  0.87768550  0.89707044    -0.33000
C862        C  0.24037979  0.87859874  0.92282118     0.36000
H863        H  0.29250329  0.87336444  0.88074106     0.16400
O864        O  0.24163193  0.87056588  0.82988151    -0.60500
H865        H  0.18812377  0.87948870  0.90198963     0.16400
O866        O  0.23936633  0.87978919  0.95324995    -0.60600
H867        H  0.23390401  0.90847046  0.95669036     0.43400
H868        H  0.24287316  0.84081743  0.82533058     0.43300
C869        C  0.38059260  0.78688271  0.00220130    -0.05700
C870        C  0.39841840  0.77676151  0.48770449    -0.33100
C871        C  0.40004913  0.73377039  0.48857267     0.36100
C872        C  0.38288229  0.70993894  0.50491704    -0.06100
C873        C  0.36329169  0.73027351  0.51907312    -0.33000
C874        C  0.36744965  0.76391103  0.02234651     0.36000
H875        H  0.41170163  0.79406252  0.47494834     0.16400
O876        O  0.41891471  0.71544590  0.47348723    -0.60500
H877        H  0.35958670  0.70404426  0.03962098     0.16400
O878        O  0.35309188  0.78330898  0.04133899    -0.60600
H879        H  0.37104257  0.79004312  0.06143620     0.43400
H880        H  0.40427518  0.71017447  0.45133557     0.43300
C881        C  0.03387840  0.02243428  0.51118983    -0.05700
C882        C  0.01794313  0.99296077  0.98387119    -0.33100
C883        C  0.48588772  0.97047139  0.97897864     0.36100
C884        C  0.47043210  0.97476590  0.00189016    -0.06100
C885        C  0.48830806  0.01300025  0.52750412    -0.33000
C886        C  0.01156598  0.03715171  0.52497304     0.36000
H887        H  0.03206107  0.98658224  0.96859175     0.16400
O888        O  0.47247653  0.94505926  0.95290717    -0.60500
H889        H  0.47702485  0.01855103  0.54533676     0.16400
O890        O  0.02035893  0.06910103  0.54674550    -0.60600
H891        H  0.01349742  0.09437084  0.53412227     0.43400
H892        H  0.98379435  0.91884652  0.95899161     0.43300
C893        C  0.28528635  0.00121941  0.00898023    -0.05700
C894        C  0.28907960  0.01859916  0.54266901    -0.33100
C895        C  0.25786888  0.01650576  0.54481151     0.36100
C896        C  0.23097523  0.01694065  0.51683520    -0.06100
C897        C  0.22725190  0.99237781  0.98639443    -0.33000
C898        C  0.25736832  0.99533369  0.98234567     0.36000
H899        H  0.30978036  0.01480452  0.56408336     0.16400
O900        O  0.25396594  0.01535942  0.57409256    -0.60500
H901        H  0.20568463  0.98851373  0.96548526     0.16400
O902        O  0.25951712  0.98851200  0.95272489    -0.60600
H903        H  0.26230083  0.01632000  0.94460766     0.43400
H904        H  0.25799281  0.98649597  0.58121518     0.43300
C905        C  0.38358972  0.95198049  0.59934006    -0.05700
C906        C  0.35384050  0.94693996  0.60513187    -0.33100
C907        C  0.35082626  0.95990909  0.63418536     0.36100
C908        C  0.37803037  0.97734360  0.65810553    -0.06100
C909        C  0.40831318  0.97909763  0.65301153    -0.33000
C910        C  0.41106055  0.96731536  0.62380652     0.36000
H911        H  0.33223757  0.93605741  0.58612832     0.16400
O912        O  0.32066754  0.96006842  0.63740050    -0.60500
H913        H  0.42960126  0.99266115  0.67105715     0.16400
O914        O  0.44013367  0.97368406  0.61869609    -0.60600
H915        H  0.44986594  0.94617427  0.62092159     0.43400
H916        H  0.31532930  0.93084880  0.64073108     0.43300
C917        C  0.37249132  0.00341225  0.90314682    -0.05700
C918        C  0.35709915  0.03979817  0.89022006    -0.33100
C919        C  0.35773316  0.05427928  0.86045558     0.36100
C920        C  0.37441084  0.03267167  0.84309094    -0.06100
C921        C  0.39105793  0.99748827  0.85710165    -0.33000
C922        C  0.38982567  0.98267991  0.88630288     0.36000
H923        H  0.34336518  0.05604425  0.90247961     0.16400
O924        O  0.34085217  0.08872156  0.84811709    -0.60500
H925        H  0.40403824  0.98004489  0.84472273     0.16400
O926        O  0.40568046  0.94736678  0.89824039    -0.60600
H927        H  0.39078201  0.92431838  0.88688057     0.43400
H928        H  0.35698059  0.11209215  0.85499154     0.43300
O929        O  0.83335482  0.87628202  0.43055283    -0.85600
O930        O  0.86181949  0.94528298  0.41747257    -0.82600
C931        C  0.86596834  0.98364655  0.41767731     0.97900
O932        O  0.86969378  0.00458941  0.44282624    -0.82700
O933        O  0.82197877  0.99634482  0.47341082    -0.85300
C934        C  0.80689263  0.98169019  0.49091880     1.02400
O935        O  0.81793135  0.95231462  0.50863037    -0.78100
O936        O  0.80362568  0.89901741  0.45824750    -0.78300
C937        C  0.80542139  0.88343093  0.43295458     1.02300
O938        O  0.89649079  0.86041778  0.48188040    -0.85600
O939        O  0.92326782  0.93659369  0.46815667    -0.82700
C940        C  0.93517607  0.96657408  0.48807871     0.97900
O941        O  0.91757157  0.98449922  0.50109707    -0.82700
O942        O  0.87482592  0.97460007  0.03503450    -0.85300
C943        C  0.87745261  0.94187892  0.05174608     1.02400
O944        O  0.87051270  0.90633759  0.03858030    -0.78100
O945        O  0.84528090  0.84773394  0.98762431    -0.78300
C946        C  0.87851616  0.83637075  0.49142461     1.02300
Cr947      Cr  0.87789444  0.90655018  0.45219689     1.93700
Cr948      Cr  0.87002814  0.98720511  0.48693466     1.93200
Cr949      Cr  0.83951055  0.90542665  0.49860295     1.39100
O950        O  0.86335392  0.93311005  0.47930412    -1.23300
O951        O  0.96487736  0.59442391  0.04084932    -0.85600
O952        O  0.94848689  0.54120055  0.98991972    -0.82600
C953        C  0.95773521  0.51093493  0.00729271     0.97900
O954        O  0.94113251  0.49632760  0.02334250    -0.82700
O955        O  0.89232539  0.49209444  0.05167046    -0.85300
C956        C  0.89930651  0.51105195  0.07800493     1.02400
O957        O  0.90790044  0.54862946  0.08050460    -0.78100
O958        O  0.93522046  0.61994781  0.06747767    -0.78300
C959        C  0.96304784  0.61193811  0.06552316     1.02300
O960        O  0.91716276  0.64670698  0.50426415    -0.85600
O961        O  0.89579325  0.58500469  0.45668880    -0.82700
C962        C  0.88964183  0.54902983  0.44450186     0.97900
O963        O  0.89168648  0.51774571  0.46208505    -0.82700
O964        O  0.84741645  0.51883058  0.99439691    -0.85300
C965        C  0.83213584  0.53332022  0.01125588     1.02400
O966        O  0.84595565  0.56019039  0.03309484    -0.78100
O967        O  0.87240690  0.63543696  0.01717546    -0.78300
C968        C  0.89072781  0.65899864  0.00755925     1.02300
Cr969      Cr  0.92884666  0.58960704  0.00009976     1.93700
Cr970      Cr  0.89415803  0.51007275  0.00911087     1.93200
Cr971      Cr  0.89108124  0.58941508  0.04698280     1.39100
O972        O  0.90405675  0.56306377  0.01874441    -1.23300
O973        O  0.65923250  0.90248965  0.33125252    -0.85600
O974        O  0.61203448  0.96062141  0.32103028    -0.82600
C975        C  0.62804952  0.99445260  0.32736402     0.97900
O976        O  0.64419545  0.00684370  0.30988954    -0.82700
O977        O  0.67351275  0.00250154  0.26185752    -0.85300
C978        C  0.69917521  0.98269345  0.27096689     1.02400
O979        O  0.69902008  0.94697402  0.28136500    -0.78100
O980        O  0.68059976  0.87408403  0.29882824    -0.78300
C981        C  0.68281726  0.88459323  0.32679881     1.02300
O982        O  0.61639297  0.85311848  0.27926334    -0.85600
O983        O  0.57111552  0.92173262  0.26596587    -0.82700
C984        C  0.56294533  0.95917703  0.25953259     0.97900
O985        O  0.58410536  0.98742251  0.26172751    -0.82700
O986        O  0.61390777  0.97720490  0.21666761    -0.85300
C987        C  0.63068400  0.95939362  0.20240680     1.02400
O988        O  0.65341607  0.93651589  0.21771114    -0.78100
O989        O  0.62998921  0.86645285  0.23755600    -0.78300
C990        C  0.62202469  0.84053593  0.25467059     1.02300
Cr991      Cr  0.61596402  0.91079633  0.29708751     1.93700
Cr992      Cr  0.62961992  0.98911447  0.26360784     1.93200
Cr993      Cr  0.66334669  0.90826728  0.25974228     1.39100
O994        O  0.63574888  0.93600750  0.27291478    -1.23300
O995        O  0.59031738  0.63360597  0.19624763    -0.85600
O996        O  0.56956087  0.56335879  0.21405367    -0.82600
C997        C  0.56782647  0.52940625  0.22644814     0.97900
O998        O  0.59259756  0.50755730  0.23551505    -0.82700
O999        O  0.62414275  0.50160871  0.18761043    -0.85300
C1000       C  0.64195946  0.51309593  0.17141909     1.02400
O1001       O  0.66011393  0.54502766  0.17987953    -0.78100
O1002       O  0.61341882  0.60289676  0.16627510    -0.78300
C1003       C  0.58892467  0.62023829  0.16906016     1.02300
O1004       O  0.63924346  0.64174366  0.25937568    -0.85600
O1005       O  0.61380410  0.57300706  0.27889154    -0.82700
C1006       C  0.63563218  0.54887047  0.29442652     0.97900
O1007       O  0.65269914  0.53083780  0.28067815    -0.82700
O1008       O  0.68451576  0.51901172  0.23765941    -0.85300
C1009       C  0.70648999  0.54707288  0.24164089     1.02400
O1010       O  0.69889233  0.58476372  0.23538381    -0.78100
O1011       O  0.65413270  0.65433945  0.21842576    -0.78300
C1012       C  0.64775046  0.66739639  0.24249829     1.02300
Cr1013     Cr  0.60552513  0.60087446  0.23652462     1.93700
Cr1014     Cr  0.63786052  0.51872678  0.23414080     1.93200
Cr1015     Cr  0.65530146  0.59578563  0.20215036     1.39100
O1016       O  0.63348811  0.57187796  0.22499311    -1.23300
O1017       O  0.92478231  0.37945204  0.31633319    -0.85600
O1018       O  0.90054066  0.45097759  0.32794608    -0.82600
C1019       C  0.89334673  0.48826053  0.32560409     0.97900
O1020       O  0.88685054  0.50640245  0.29935366    -0.82700
O1021       O  0.93772602  0.50529060  0.27479453    -0.85300
C1022       C  0.95637971  0.49177189  0.26110094     1.02400
O1023       O  0.94929711  0.45916596  0.24478698    -0.78100
O1024       O  0.95836561  0.40542665  0.29324496    -0.78300
C1025       C  0.95360279  0.38875154  0.31690804     1.02300
O1026       O  0.86420080  0.36057073  0.26446162    -0.85600
O1027       O  0.83937086  0.43792759  0.27884317    -0.82700
C1028       C  0.82765508  0.46478792  0.25743708     0.97900
O1029       O  0.84375217  0.47707494  0.24020115    -0.82700
O1030       O  0.89161558  0.48149928  0.21324337    -0.85300
C1031       C  0.88976106  0.45036539  0.19522587     1.02400
O1032       O  0.89454570  0.41448028  0.20672738    -0.78100
O1033       O  0.90885366  0.35311122  0.25346865    -0.78300
C1034       C  0.88277991  0.33801093  0.25545976     1.02300
Cr1035     Cr  0.88302632  0.40904154  0.29411045     1.93700
Cr1036     Cr  0.89085137  0.48818103  0.25774985     1.93200
Cr1037     Cr  0.92523077  0.40980903  0.25088093     1.39100
O1038       O  0.89898911  0.43543837  0.26731128    -1.23300
O1039       O  0.82602166  0.12711249  0.19751686    -0.85600
O1040       O  0.80431270  0.05528973  0.21368751    -0.82600
C1041       C  0.80290707  0.02035530  0.22491356     0.97900
O1042       O  0.82776380  0.99904835  0.23415339    -0.82700
O1043       O  0.85972573  0.99205111  0.18841742    -0.85300
C1044       C  0.87723960  0.00323866  0.17195993     1.02400
O1045       O  0.89398387  0.03645306  0.17891920    -0.78100
O1046       O  0.84745582  0.09553992  0.16666383    -0.78300
C1047       C  0.82373297  0.11417069  0.17016052     1.02300
O1048       O  0.87307233  0.13545949  0.25970291    -0.85600
O1049       O  0.84720521  0.06501743  0.27854993    -0.82700
C1050       C  0.86835326  0.04041115  0.29436668     0.97900
O1051       O  0.88608678  0.02237012  0.28124309    -0.82700
O1052       O  0.91890530  0.00993124  0.23862682    -0.85300
C1053       C  0.94102983  0.03718644  0.24151673     1.02400
O1054       O  0.93389209  0.07486006  0.23451194    -0.78100
O1055       O  0.89015605  0.14497889  0.21943106    -0.78300
C1056       C  0.88354455  0.15956373  0.24298748     1.02300
Cr1057     Cr  0.84014619  0.09316115  0.23669108     1.93700
Cr1058     Cr  0.87261897  0.01029072  0.23450782     1.93200
Cr1059     Cr  0.88991061  0.08698133  0.20204533     1.39100
O1060       O  0.86836103  0.06365377  0.22532524    -1.23300
O1061       O  0.69884916  0.08701707  0.04196254    -0.85600
O1062       O  0.67857890  0.03810259  0.98843399    -0.82600
C1063       C  0.68550099  0.00570101  0.00377351     0.97900
O1064       O  0.66872117  0.99280728  0.02027441    -0.82700
O1065       O  0.62084317  0.99304795  0.05093978    -0.85300
C1066       C  0.63035677  0.01118769  0.07797818     1.02400
O1067       O  0.64174648  0.04750892  0.08072819    -0.78100
O1068       O  0.67193303  0.11673608  0.06951659    -0.78300
C1069       C  0.69889251  0.10564611  0.06684937     1.02300
O1070       O  0.65962778  0.15112789  0.50916774    -0.85600
O1071       O  0.63473478  0.09218011  0.46013207    -0.82700
C1072       C  0.62611831  0.05684656  0.44728087     0.97900
O1073       O  0.62518129  0.02534149  0.46422636    -0.82700
O1074       O  0.57727589  0.02569956  0.99388723    -0.85300
C1075       C  0.56351937  0.03896351  0.01244803     1.02400
O1076       O  0.57913656  0.06394004  0.03528860    -0.78100
O1077       O  0.60960744  0.13915187  0.02117269    -0.78300
C1078       C  0.62937818  0.16075464  0.01194446     1.02300
Cr1079     Cr  0.66275369  0.08805206  0.00151522     1.93700
Cr1080     Cr  0.62300815  0.01184670  0.00780479     1.93200
Cr1081     Cr  0.62591249  0.09022448  0.04895166     1.39100
O1082       O  0.63647384  0.06350703  0.01929269    -1.23300
O1083       O  0.59910263  0.38599025  0.42698076    -0.85600
O1084       O  0.63448744  0.45176731  0.41670450    -0.82600
C1085       C  0.63652375  0.49053752  0.41756791     0.97900
O1086       O  0.63876808  0.51069482  0.44267154    -0.82700
O1087       O  0.59295687  0.50753525  0.47361121    -0.85300
C1088       C  0.57746343  0.49492482  0.49118234     1.02400
O1089       O  0.58524790  0.46290900  0.50645273    -0.78100
O1090       O  0.56818627  0.41442898  0.45146869    -0.78300
C1091       C  0.57119607  0.39699276  0.42716266     1.02300
O1092       O  0.65772590  0.36332030  0.48076129    -0.85600
O1093       O  0.69068817  0.43502434  0.46863193    -0.82700
C1094       C  0.70322935  0.46506144  0.48785876     0.97900
O1095       O  0.68645465  0.48588244  0.49996315    -0.82700
O1096       O  0.64069297  0.48172403  0.03180520    -0.85300
C1097       C  0.64138065  0.45071490  0.04994616     1.02400
O1098       O  0.63338576  0.41433507  0.03847681    -0.78100
O1099       O  0.60875048  0.35180412  0.99032294    -0.81500
C1100       C  0.63634161  0.34186031  0.48748310     1.02300
Cr1101     Cr  0.64447364  0.41093926  0.45080120     1.93700
Cr1102     Cr  0.63956435  0.49259968  0.48632462     1.93200
Cr1103     Cr  0.60240020  0.41452140  0.49342192     1.39100
O1104       O  0.62968583  0.43957747  0.47680462    -1.23300
C1105       C  0.63895806  0.29777426  0.49528623    -0.05700
C1106       C  0.64156667  0.26353287  0.97760840    -0.33100
C1107       C  0.63643221  0.22100848  0.98010181     0.36100
C1108       C  0.62629236  0.20520364  0.00496133    -0.06100
C1109       C  0.61986756  0.23861308  0.51894053    -0.33000
C1110       C  0.62337863  0.28133568  0.51609765     0.36000
H1111       H  0.64828194  0.27506403  0.95777733     0.16400
O1112       O  0.64088518  0.19485559  0.95773923    -0.60500
H1113       H  0.60896960  0.22663129  0.53585390     0.16400
O1114       O  0.61207627  0.30702322  0.53429853    -0.60600
H1115       H  0.58813952  0.30663829  0.52380864     0.43400
H1116       H  0.66477470  0.19282058  0.96351566     0.43300
C1117       C  0.79237151  0.11859388  0.14317093    -0.05700
C1118       C  0.79075110  0.11027208  0.11179706    -0.33100
C1119       C  0.76082123  0.10835984  0.08672617     0.36100
C1120       C  0.73115274  0.11383018  0.09258706    -0.06100
C1121       C  0.73289961  0.12428727  0.12372163    -0.33000
C1122       C  0.76297123  0.12716894  0.14869146     0.36000
H1123       H  0.81277827  0.10442478  0.10662121     0.16400
O1124       O  0.76098149  0.10162969  0.05637690    -0.60500
H1125       H  0.71078690  0.12899168  0.12903441     0.16400
O1126       O  0.76294105  0.13615671  0.17876352    -0.60600
H1127       H  0.76565588  0.16662604  0.18086470     0.43400
H1128       H  0.76716752  0.07250871  0.05578825     0.43300
C1129       C  0.54139479  0.38974293  0.39886397    -0.05700
C1130       C  0.51069578  0.38752703  0.40286255    -0.33100
C1131       C  0.98064549  0.38611346  0.37655010     0.36100
C1132       C  0.98239291  0.38178580  0.34571972    -0.06100
C1133       C  0.51385313  0.38858708  0.34147396    -0.33000
C1134       C  0.54268747  0.38908802  0.36770765     0.36000
H1135       H  0.50899382  0.38779393  0.42656395     0.16400
O1136       O  0.95137020  0.39146215  0.38091971    -0.60500
H1137       H  0.51567756  0.38994796  0.31783841     0.16400
O1138       O  0.57191612  0.39219907  0.36251776    -0.60600
H1139       H  0.57746711  0.36335561  0.35968262     0.43400
H1140       H  0.94980903  0.42174803  0.38293966     0.43300
C1141       C  0.88319372  0.20541662  0.24731996    -0.05700
C1142       C  0.89213383  0.23126421  0.22615341    -0.33100
C1143       C  0.88902143  0.27403444  0.22680180     0.36100
C1144       C  0.87718132  0.29272578  0.24926034    -0.06100
C1145       C  0.86718046  0.26712743  0.26988120    -0.33000
C1146       C  0.87004875  0.22390035  0.26905166     0.36000
H1147       H  0.90145485  0.21831202  0.20862740     0.16400
O1148       O  0.89874987  0.29760497  0.20584400    -0.60500
H1149       H  0.85854887  0.28073399  0.28767207     0.16400
O1150       O  0.85960239  0.20017201  0.28941602    -0.60600
H1151       H  0.87877892  0.19848947  0.30903380     0.43400
H1152       H  0.87842481  0.30388699  0.18846197     0.43300
C1153       C  0.74038708  0.53200483  0.25045617    -0.05700
C1154       C  0.74807213  0.49597640  0.26888017    -0.33100
C1155       C  0.77565113  0.47332626  0.27094521     0.36100
C1156       C  0.79667814  0.48621975  0.25443485    -0.06100
C1157       C  0.78961124  0.52322475  0.23696669    -0.33000
C1158       C  0.76204474  0.54598383  0.23505475     0.36000
H1159       H  0.73169454  0.48418852  0.28078255     0.16400
O1160       O  0.78133346  0.43821546  0.28875495    -0.60500
H1161       H  0.80552323  0.53476833  0.22449660     0.16400
O1162       O  0.75535093  0.58011388  0.21618121    -0.60600
H1163       H  0.76805462  0.60321325  0.22986515     0.43400
H1164       H  0.76972683  0.41560024  0.27384873     0.43300
C1165       C  0.98561242  0.51354876  0.26068766    -0.05700
C1166       C  0.51484089  0.49398958  0.27402287    -0.33100
C1167       C  0.54132013  0.49712880  0.26312056     0.36100
C1168       C  0.53901361  0.52026406  0.23574175    -0.06100
C1169       C  0.51041609  0.54138691  0.22067147    -0.33000
C1170       C  0.98293030  0.53916844  0.23469613     0.36000
H1171       H  0.51604923  0.47367210  0.29364404     0.16400
O1172       O  0.56940789  0.47806114  0.27973885    -0.60500
H1173       H  0.50833918  0.56015781  0.20004074     0.16400
O1174       O  0.95409026  0.55712034  0.21880120    -0.60600
H1175       H  0.95532565  0.58422206  0.22959504     0.43400
H1176       H  0.56619093  0.44917146  0.27159110     0.43300
C1177       C  0.63870030  0.51125838  0.38862365    -0.05700
C1178       C  0.66148377  0.49704627  0.37535389    -0.33100
C1179       C  0.66225948  0.51105051  0.34590989     0.36100
C1180       C  0.63926469  0.53922657  0.32830989    -0.06100
C1181       C  0.61749686  0.55516243  0.34248180    -0.33000
C1182       C  0.61717460  0.54145509  0.37239128     0.36000
H1183       H  0.67850800  0.47408506  0.38770555     0.16400
O1184       O  0.68477690  0.49538739  0.33406159    -0.60500
H1185       H  0.59970069  0.57706201  0.32980252     0.16400
O1186       O  0.59470398  0.55618224  0.38469778    -0.60600
H1187       H  0.57489993  0.53829284  0.37523770     0.43400
H1188       H  0.70406895  0.51451909  0.34196806     0.43300
C1189       C  0.64379352  0.49080058  0.14266794    -0.05700
C1190       C  0.66763440  0.50498439  0.12969000    -0.33100
C1191       C  0.66842219  0.49013801  0.10056575     0.36100
C1192       C  0.64596328  0.45924786  0.08387645    -0.06100
C1193       C  0.62351846  0.44260354  0.09762831    -0.33000
C1194       C  0.62224500  0.45825469  0.12677843     0.36000
H1195       H  0.68527809  0.52922824  0.14146142     0.16400
O1196       O  0.69093813  0.50670677  0.08823234    -0.60500
H1197       H  0.60551392  0.41932049  0.08474071     0.16400
O1198       O  0.59870471  0.44328882  0.13833952    -0.60600
H1199       H  0.60771902  0.41809407  0.15011468     0.43400
H1200       H  0.68222177  0.53345046  0.07903339     0.43300
C1201       C  0.62569381  0.79565537  0.24961637    -0.05700
C1202       C  0.62427718  0.76746355  0.27304029    -0.33100
C1203       C  0.63329961  0.72648019  0.27215172     0.36100
C1204       C  0.64380760  0.71229045  0.24722990    -0.06100
C1205       C  0.64513069  0.74043677  0.22373657    -0.33000
C1206       C  0.63610554  0.78146024  0.22463780     0.36000
H1207       H  0.61693397  0.77740810  0.29277471     0.16400
O1208       O  0.63104097  0.70042512  0.29558179    -0.60500
H1209       H  0.65244814  0.73043024  0.20400278     0.16400
O1210       O  0.63829896  0.80753795  0.20120177    -0.60600
H1211       H  0.61639598  0.80617842  0.18475406     0.43400
H1212       H  0.65242198  0.70331863  0.31275009     0.43300
C1213       C  0.62559419  0.01835290  0.35508283    -0.05700
C1214       C  0.59881602  0.00897544  0.36524405    -0.33100
C1215       C  0.59745509  0.02409662  0.39412084     0.36100
C1216       C  0.62268333  0.05000218  0.41344199    -0.06100
C1217       C  0.64825994  0.06236076  0.40233654    -0.33000
C1218       C  0.64990332  0.04660801  0.37338844     0.36000
H1219       H  0.57931251  0.98806333  0.35141687     0.16400
O1220       O  0.57225581  0.01133995  0.40417414    -0.60500
H1221       H  0.66828044  0.08172698  0.41728137     0.16400
O1222       O  0.67666145  0.05611958  0.36483210    -0.60600
H1223       H  0.67039181  0.07985450  0.35035686     0.43400
H1224       H  0.55505208  0.03145131  0.39520330     0.43300
C1225       C  0.62566752  0.99290582  0.10683871    -0.05700
C1226       C  0.63887450  0.95526683  0.11927582    -0.33100
C1227       C  0.63912272  0.94267964  0.14965647     0.36100
C1228       C  0.62578758  0.96775282  0.16807534    -0.06100
C1229       C  0.61039846  0.00370296  0.15430946    -0.33000
C1230       C  0.61060157  0.01649518  0.12435258     0.36000
H1231       H  0.65047766  0.93666639  0.10622337     0.16400
O1232       O  0.65357700  0.90653562  0.16152280    -0.60500
H1233       H  0.59964835  0.02335468  0.16750638     0.16400
O1234       O  0.59633061  0.05278030  0.11245962    -0.60600
H1235       H  0.61247732  0.07494450  0.12331419     0.43400
H1236       H  0.63546139  0.88566850  0.15725470     0.43300
C1237       C  0.97448646  0.02080968  0.25048852    -0.05700
C1238       C  0.48568584  0.98771244  0.27350529    -0.33100
C1239       C  0.51168230  0.96364653  0.27298925     0.36100
C1240       C  0.52961769  0.97436915  0.25311269    -0.06100
C1241       C  0.52032248  0.00922395  0.23348322    -0.33000
C1242       C  0.99729862  0.03524511  0.23665524     0.36000
H1243       H  0.47198843  0.97816241  0.28874298     0.16400
O1244       O  0.51987495  0.93043257  0.29271442    -0.60500
H1245       H  0.53418183  0.01867995  0.21836656     0.16400
O1246       O  0.99205897  0.07043258  0.21891310    -0.60600
H1247       H  0.98084402  0.06087152  0.19667372     0.43400
H1248       H  0.53582439  0.94158900  0.31280000     0.43300
C1249       C  0.72730492  0.99739065  0.26296988    -0.05700
C1250       C  0.72206389  0.02362847  0.23684217    -0.33100
C1251       C  0.74564910  0.02925491  0.22250717     0.36100
C1252       C  0.77509341  0.00882721  0.23457096    -0.06100
C1253       C  0.78058748  0.98350386  0.26123274    -0.33000
C1254       C  0.75717219  0.97818600  0.27569513     0.36000
H1255       H  0.69896556  0.03812380  0.22634134     0.16400
O1256       O  0.73972749  0.05491438  0.19692336    -0.60500
H1257       H  0.80362138  0.96887530  0.27177852     0.16400
O1258       O  0.76337963  0.95320964  0.30169156    -0.60600
H1259       H  0.77265426  0.97196815  0.32039680     0.43400
H1260       H  0.73158520  0.03647630  0.17789608     0.43300
C1261       C  0.99426796  0.62227282  0.09204108    -0.05700
C1262       C  0.02403470  0.62067046  0.08612695    -0.33100
C1263       C  0.55592123  0.61374996  0.10976260     0.36100
C1264       C  0.55764379  0.62210375  0.14141909    -0.06100
C1265       C  0.52815250  0.62740119  0.14725063    -0.33000
C1266       C  0.49776825  0.62301318  0.12278318     0.36000
H1267       H  0.02412404  0.61568708  0.06210948     0.16400
O1268       O  0.58371370  0.60861875  0.10246784    -0.60500
H1269       H  0.52843987  0.63299416  0.17131751     0.16400
O1270       O  0.96739063  0.63179174  0.13087797    -0.60600
H1271       H  0.46558089  0.59779049  0.13712627     0.43400
H1272       H  0.58607483  0.57831599  0.10186733     0.43300
C1273       C  0.89370375  0.49106770  0.10554409    -0.05700
C1274       C  0.90721233  0.45325043  0.11730521    -0.33100
C1275       C  0.90371986  0.43702727  0.14533005     0.36100
C1276       C  0.88620009  0.45860027  0.16156100    -0.06100
C1277       C  0.87049255  0.49446706  0.14799680    -0.33000
C1278       C  0.87432753  0.51084139  0.12052105     0.36000
H1279       H  0.92179918  0.43743947  0.10573396     0.16400
O1280       O  0.91990832  0.40227950  0.15806490    -0.60500
H1281       H  0.85656685  0.51128171  0.15977007     0.16400
O1282       O  0.85894953  0.54640045  0.10836744    -0.60600
H1283       H  0.87267185  0.56915598  0.12162688     0.43400
H1284       H  0.90418508  0.37896412  0.14902348     0.43300
C1285       C  0.88904326  0.50876227  0.35334114    -0.05700
C1286       C  0.90592685  0.54576020  0.36628392    -0.33100
C1287       C  0.90424562  0.56181977  0.39503580     0.36100
C1288       C  0.88491882  0.54110683  0.41059229    -0.06100
C1289       C  0.86640508  0.50577738  0.39618920    -0.33000
C1290       C  0.86848730  0.48952384  0.36800379     0.36000
H1291       H  0.92189433  0.56072787  0.35520325     0.16400
O1292       O  0.92417027  0.59497109  0.40931103    -0.60500
H1293       H  0.85166135  0.48921342  0.40786471     0.16400
O1294       O  0.85131978  0.45362978  0.35558887    -0.60600
H1295       H  0.82920249  0.46235181  0.34311520     0.43400
H1296       H  0.91087214  0.61948916  0.40188542     0.43300
C1297       C  0.73756415  0.47988037  0.49469393    -0.05700
C1298       C  0.75114938  0.47917102  0.47033214    -0.33100
C1299       C  0.78090504  0.49997057  0.47387438     0.36100
C1300       C  0.79856289  0.51538254  0.00641186    -0.06100
C1301       C  0.78215000  0.52460638  0.02778160    -0.33000
C1302       C  0.75167868  0.50556315  0.02466452     0.36000
H1303       H  0.73800625  0.46386861  0.44783719     0.16400
O1304       O  0.79239026  0.49955247  0.44871802    -0.60500
H1305       H  0.79295482  0.54656937  0.04710164     0.16400
O1306       O  0.73662110  0.51572070  0.04607776    -0.60600
H1307       H  0.72710442  0.54291918  0.03926655     0.43400
H1308       H  0.80175992  0.47200559  0.44908352     0.43300
C1309       C  0.98811061  0.49581720  0.00693233    -0.05700
C1310       C  0.01579514  0.51631083  0.02775167    -0.33100
C1311       C  0.54609211  0.51447970  0.52464377     0.36100
C1312       C  0.54884906  0.51292404  0.49390562    -0.06100
C1313       C  0.52111239  0.50989776  0.46705858    -0.33000
C1314       C  0.98834806  0.48118853  0.97726954     0.36000
H1315       H  0.01527988  0.52973617  0.04989088     0.16400
O1316       O  0.57326631  0.51535287  0.55143129    -0.60500
H1317       H  0.52308334  0.50701710  0.44352899     0.16400
O1318       O  0.96081954  0.46314546  0.95581734    -0.60600
H1319       H  0.96450209  0.43306393  0.95711913     0.43400
H1320       H  0.58297487  0.54365644  0.55257479     0.43300
C1321       C  0.77386341  0.87551413  0.40598797    -0.05700
C1322       C  0.77327454  0.87153955  0.37440159    -0.33100
C1323       C  0.74373171  0.87174934  0.34862778     0.36100
C1324       C  0.71374341  0.87727920  0.35384456    -0.06100
C1325       C  0.71419881  0.87897281  0.38543283    -0.33000
C1326       C  0.74348655  0.87708385  0.41115780     0.36000
H1327       H  0.79589438  0.87001350  0.36948539     0.16400
O1328       O  0.74487247  0.86917764  0.31831678    -0.60500
H1329       H  0.69171404  0.88234037  0.39034255     0.16400
O1330       O  0.74203703  0.87820827  0.44142292    -0.60600
H1331       H  0.73825996  0.84911663  0.44639552     0.43400
H1332       H  0.74321345  0.83922323  0.31319204     0.43300
C1333       C  0.88503067  0.79213231  0.49768174    -0.05700
C1334       C  0.90067271  0.77014123  0.98435110    -0.33100
C1335       C  0.90451331  0.72761507  0.98762383     0.36100
C1336       C  0.88421590  0.70307382  0.00021912    -0.06100
C1337       C  0.85951987  0.72197295  0.00802600    -0.33000
C1338       C  0.87553270  0.77175050  0.52137214     0.36000
H1339       H  0.91651356  0.78815341  0.97474949     0.16400
O1340       O  0.92859855  0.71061798  0.97871371    -0.60500
H1341       H  0.86971805  0.71379103  0.54253774     0.16400
O1342       O  0.86538602  0.79379558  0.54242862    -0.60600
H1343       H  0.88525757  0.79942348  0.56105544     0.43400
H1344       H  0.91796625  0.70192965  0.95616623     0.43300
C1345       C  0.53000836  0.02056278  0.00813240    -0.05700
C1346       C  0.51815047  0.00161403  0.48217886    -0.33100
C1347       C  0.99202739  0.96958853  0.48202225     0.36100
C1348       C  0.96984913  0.98382247  0.49624765    -0.06100
C1349       C  0.98128922  0.00696763  0.02295577    -0.33000
C1350       C  0.51464217  0.02467252  0.03113942     0.36000
H1351       H  0.52945458  0.99602466  0.46436695     0.16400
O1352       O  0.98330331  0.93756280  0.46033379    -0.60500
H1353       H  0.96756649  0.01307751  0.03864140     0.16400
O1354       O  0.52816633  0.04984481  0.05732482    -0.60600
H1355       H  0.51825657  0.07697373  0.05114665     0.43400
H1356       H  0.48717748  0.92448760  0.46286887     0.43300
C1357       C  0.77655339  0.99606752  0.49274046    -0.05700
C1358       C  0.77280269  0.99533210  0.02511567    -0.33100
C1359       C  0.74254436  0.99129633  0.02902217     0.36100
C1360       C  0.71461953  0.98733551  0.00216837    -0.06100
C1361       C  0.71916312  0.97828867  0.47807023    -0.33000
C1362       C  0.74749133  0.98112340  0.47013264     0.36000
H1363       H  0.79436514  0.99757600  0.04615257     0.16400
O1364       O  0.74027577  0.99523046  0.05886058    -0.60500
H1365       H  0.69640712  0.96934074  0.45974555     0.16400
O1366       O  0.74696002  0.96749325  0.44080252    -0.60600
H1367       H  0.73865710  0.99071743  0.42625005     0.43400
H1368       H  0.74283467  0.96697661  0.06762359     0.43300
C1369       C  0.88255536  0.94717707  0.08604698    -0.05700
C1370       C  0.85830779  0.93289476  0.09833145    -0.33100
C1371       C  0.85698233  0.94854349  0.12742990     0.36100
C1372       C  0.88011079  0.97894200  0.14452106    -0.06100
C1373       C  0.90607201  0.98972711  0.13344760    -0.33000
C1374       C  0.90719525  0.97448905  0.10452585     0.36000
H1375       H  0.83884640  0.91217458  0.08412707     0.16400
O1376       O  0.83159858  0.93648176  0.13739300    -0.60500
H1377       H  0.92493851  0.01198957  0.14644351     0.16400
O1378       O  0.93125285  0.98889295  0.09340780    -0.60600
H1379       H  0.94729385  0.96681418  0.09800230     0.43400
H1380       H  0.83976322  0.91324335  0.15195963     0.43300
C1381       C  0.86875049  0.00207095  0.38793135    -0.05700
C1382       C  0.85377027  0.03868887  0.37504957    -0.33100
C1383       C  0.85428808  0.05260716  0.34515834     0.36100
C1384       C  0.87044022  0.03014270  0.32779773    -0.06100
C1385       C  0.88669298  0.99480392  0.34170051    -0.33000
C1386       C  0.88569669  0.98060890  0.37100142     0.36000
H1387       H  0.84065714  0.05569372  0.38753923     0.16400
O1388       O  0.83816626  0.08757909  0.33285182    -0.60500
H1389       H  0.89939093  0.97691677  0.32928566     0.16400
O1390       O  0.90184824  0.94554391  0.38316435    -0.60600
H1391       H  0.88751893  0.92226750  0.37131867     0.43400
H1392       H  0.85407959  0.11072743  0.34172147     0.43300
O1393       O  0.82987135  0.87863042  0.92835703    -0.85600
O1394       O  0.86304001  0.94621051  0.91800060    -0.82600
C1395       C  0.86727748  0.98466166  0.91960985     0.97900
O1396       O  0.86928309  0.00446999  0.94487538    -0.82700
O1397       O  0.82163090  0.99604269  0.97561283    -0.85300
C1398       C  0.80667044  0.98124529  0.99316495     1.02400
O1399       O  0.81784817  0.95152638  0.01022933    -0.78100
O1400       O  0.80052237  0.90359904  0.95580251    -0.78300
C1401       C  0.80208662  0.88736704  0.93058622     1.02300
O1402       O  0.89146728  0.85783532  0.98069363    -0.85600
O1403       O  0.92179799  0.93231612  0.96900310    -0.82700
C1404       C  0.93396726  0.96205752  0.98898698     0.97900
O1405       O  0.91668994  0.98063132  0.00194531    -0.82700
O1406       O  0.87440438  0.98082274  0.53374738    -0.85300
C1407       C  0.87794398  0.94955462  0.55192846     1.02400
O1408       O  0.87376674  0.91309296  0.54048141    -0.78100
O1409       O  0.85279646  0.84913689  0.49389572    -0.78300
C1410       C  0.87135522  0.83384673  0.98722078     1.02300
Cr1411     Cr  0.87564108  0.90536054  0.95157799     1.93700
Cr1412     Cr  0.86948319  0.98492345  0.98839744     1.93200
Cr1413     Cr  0.83601922  0.90427991  0.99649616     1.39100
O1414       O  0.86131929  0.93172154  0.97878081    -1.23300
O1415       O  0.96588354  0.59462594  0.53988858    -0.85600
O1416       O  0.94912414  0.54037126  0.49030291    -0.82600
C1417       C  0.95630962  0.50868064  0.50672800     0.97900
O1418       O  0.93875784  0.49475205  0.52210322    -0.82700
O1419       O  0.88833599  0.49280055  0.54892243    -0.85300
C1420       C  0.89764370  0.51019389  0.57600793     1.02400
O1421       O  0.90949766  0.54641899  0.57924604    -0.78100
O1422       O  0.93740287  0.61849183  0.56819467    -0.78300
C1423       C  0.96482446  0.61081628  0.56527488     1.02300
O1424       O  0.91663267  0.64579428  0.00586746    -0.85600
O1425       O  0.89463697  0.58432223  0.95757501    -0.82700
C1426       C  0.88848961  0.54820380  0.94546271     0.97900
O1427       O  0.89118771  0.51687490  0.96327451    -0.82700
O1428       O  0.84697210  0.52443493  0.49117760    -0.85300
C1429       C  0.83216541  0.53824311  0.50862917     1.02400
O1430       O  0.84703590  0.56197720  0.53244383    -0.78100
O1431       O  0.87509776  0.63774040  0.51987674    -0.78300
C1432       C  0.89258994  0.66065334  0.50875483     1.02300
Cr1433     Cr  0.92966679  0.58994832  0.49933249     1.93700
Cr1434     Cr  0.89272382  0.51148035  0.50719135     1.93200
Cr1435     Cr  0.89287632  0.58946632  0.54735056     1.39100
O1436       O  0.90457578  0.56394661  0.51791020    -1.23300
O1437       O  0.65530193  0.90209930  0.83030817    -0.85600
O1438       O  0.60790148  0.95974789  0.82002886    -0.82600
C1439       C  0.62339911  0.99385826  0.82611695     0.97900
O1440       O  0.64009926  0.00582943  0.80905959    -0.82700
O1441       O  0.67073370  0.00018176  0.76193347    -0.85300
C1442       C  0.69597971  0.97943577  0.76998337     1.02400
O1443       O  0.69540921  0.94312982  0.77917826    -0.78100
O1444       O  0.67582344  0.87191568  0.79790504    -0.78300
C1445       C  0.67863286  0.88381157  0.82573626     1.02300
O1446       O  0.61214751  0.85147847  0.77963454    -0.85600
O1447       O  0.56697792  0.92081687  0.76584726    -0.82700
C1448       C  0.55913573  0.95837001  0.75924489     0.97900
O1449       O  0.58044317  0.98607108  0.76021023    -0.82700
O1450       O  0.61143122  0.97674304  0.71580769    -0.85300
C1451       C  0.62821799  0.95907632  0.70150054     1.02400
O1452       O  0.64914210  0.93348507  0.71614188    -0.78100
O1453       O  0.62463494  0.86350200  0.73713698    -0.78300
C1454       C  0.61725612  0.83803285  0.75502273     1.02300
Cr1455     Cr  0.61194667  0.90978265  0.79653437     1.93700
Cr1456     Cr  0.62630942  0.98762498  0.76280921     1.93200
Cr1457     Cr  0.65869104  0.90535994  0.75841272     1.39100
O1458       O  0.63172958  0.93428779  0.77191711    -1.23300
O1459       O  0.58808610  0.63269425  0.69783956    -0.85600
O1460       O  0.56764795  0.56041479  0.71225475    -0.82600
C1461       C  0.56536849  0.52615259  0.72388533     0.97900
O1462       O  0.58980428  0.50373849  0.73249740    -0.82700
O1463       O  0.62206246  0.50037529  0.68502242    -0.85300
C1464       C  0.64025934  0.51261809  0.66944598     1.02400
O1465       O  0.65750702  0.54531179  0.67810564    -0.78100
O1466       O  0.61086212  0.60373231  0.66682237    -0.78300
C1467       C  0.58675407  0.62146453  0.67021110     1.02300
O1468       O  0.63614581  0.63861336  0.76083909    -0.85600
O1469       O  0.61092251  0.56681180  0.77817662    -0.82700
C1470       C  0.63235137  0.54156109  0.79278622     0.97900
O1471       O  0.64967543  0.52512454  0.77857963    -0.82700
O1472       O  0.68192084  0.51637318  0.73567802    -0.85300
C1473       C  0.70384713  0.54463029  0.74054662     1.02400
O1474       O  0.69628508  0.58244394  0.73502896    -0.78100
O1475       O  0.65183977  0.65221681  0.72036979    -0.78300
C1476       C  0.64493333  0.66472291  0.74432426     1.02300
Cr1477     Cr  0.60303153  0.59742966  0.73669810     1.93700
Cr1478     Cr  0.63522251  0.51561461  0.73182229     1.93200
Cr1479     Cr  0.65280910  0.59474991  0.70220142     1.39100
O1480       O  0.63110083  0.56940743  0.72442691    -1.23300
O1481       O  0.92423230  0.38046718  0.81586329    -0.85600
O1482       O  0.90184243  0.45301866  0.82817745    -0.82600
C1483       C  0.89362058  0.48988160  0.82588358     0.97900
O1484       O  0.88673402  0.50786965  0.79949930    -0.82700
O1485       O  0.93690240  0.50491923  0.77276451    -0.85300
C1486       C  0.95427292  0.49070450  0.75782180     1.02400
O1487       O  0.94630581  0.45782803  0.74196643    -0.78100
O1488       O  0.95655250  0.40411998  0.79063118    -0.78300
C1489       C  0.95275920  0.38868123  0.81517896     1.02300
O1490       O  0.86213527  0.36241890  0.76629297    -0.85600
O1491       O  0.83913261  0.44004948  0.78057216    -0.82700
C1492       C  0.82679824  0.46604363  0.75865863     0.97900
O1493       O  0.84249471  0.47838445  0.74106034    -0.82700
O1494       O  0.88895204  0.48211488  0.71226818    -0.85300
C1495       C  0.88618595  0.45118848  0.69380236     1.02400
O1496       O  0.89023758  0.41505108  0.70506798    -0.78100
O1497       O  0.90469831  0.35323125  0.75192684    -0.78300
C1498       C  0.87936282  0.33914345  0.75617539     1.02300
Cr1499     Cr  0.88260673  0.41080781  0.79489677     1.93700
Cr1500     Cr  0.88967741  0.48893681  0.75733164     1.93200
Cr1501     Cr  0.92200604  0.40935311  0.74889257     1.39100
O1502       O  0.89737849  0.43607049  0.76674795    -1.23300
O1503       O  0.82475080  0.13000331  0.70161071    -0.85600
O1504       O  0.80365922  0.05813815  0.71864984    -0.82600
C1505       C  0.80254802  0.02247560  0.72887818     0.97900
O1506       O  0.82747256  0.00131498  0.73725677    -0.82700
O1507       O  0.85729635  0.99672649  0.68917590    -0.85300
C1508       C  0.87459246  0.00836792  0.67253775     1.02400
O1509       O  0.89232225  0.04065475  0.68030686    -0.78100
O1510       O  0.84704811  0.10091743  0.67015356    -0.78300
C1511       C  0.82337717  0.11940302  0.67393753     1.02300
O1512       O  0.87372710  0.13786245  0.76313400    -0.85600
O1513       O  0.84927899  0.06705459  0.78230171    -0.82700
C1514       C  0.87050086  0.04208407  0.79737355     0.97900
O1515       O  0.88690194  0.02318164  0.78318614    -0.82700
O1516       O  0.91747910  0.01156646  0.73854504    -0.85300
C1517       C  0.94002092  0.03832700  0.74209458     1.02400
O1518       O  0.93353647  0.07645580  0.73637212    -0.78100
O1519       O  0.89051083  0.14768214  0.72277594    -0.78300
C1520       C  0.88384093  0.16206653  0.74625833     1.02300
Cr1521     Cr  0.84037744  0.09568543  0.74058404     1.93700
Cr1522     Cr  0.87176408  0.01273206  0.73599711     1.93200
Cr1523     Cr  0.88941344  0.09027942  0.70473089     1.39100
O1524       O  0.86784903  0.06642565  0.72789470    -1.23300
O1525       O  0.70237336  0.09415532  0.54439562    -0.85600
O1526       O  0.68416468  0.04247282  0.49239302    -0.82600
C1527       C  0.69036648  0.01086625  0.50876793     0.97900
O1528       O  0.67261179  0.99926662  0.52461082    -0.82700
O1529       O  0.62406155  0.00246068  0.55350433    -0.85300
C1530       C  0.63195359  0.02179835  0.58001196     1.02400
O1531       O  0.64142698  0.05906385  0.58205293    -0.78100
O1532       O  0.67406697  0.12629774  0.56944506    -0.78300
C1533       C  0.70141938  0.11454481  0.56818599     1.02300
O1534       O  0.65447037  0.14511873  0.01004845    -0.85600
O1535       O  0.62839155  0.08847979  0.95940261    -0.82700
C1536       C  0.61985541  0.05367445  0.94557890     0.97900
O1537       O  0.61985451  0.02108418  0.96170992    -0.82700
O1538       O  0.58106609  0.03247191  0.49473889    -0.85300
C1539       C  0.56643856  0.04807396  0.51173247     1.02400
O1540       O  0.58131026  0.07469780  0.53349246    -0.78100
O1541       O  0.61347677  0.14697527  0.51778509    -0.78300
C1542       C  0.63413548  0.16747726  0.50906320     1.02300
Cr1543     Cr  0.66772497  0.09341957  0.50305675     1.93700
Cr1544     Cr  0.62695680  0.01874476  0.51024954     1.93200
Cr1545     Cr  0.62814790  0.09994254  0.54803214     1.39100
O1546       O  0.64027427  0.07071945  0.52043199    -1.23300
O1547       O  0.60057118  0.38042898  0.92904475    -0.85600
O1548       O  0.64010339  0.44336772  0.92071522    -0.82600
C1549       C  0.63612903  0.48153946  0.91761755     0.97900
O1550       O  0.63308931  0.50319712  0.94006813    -0.82700
O1551       O  0.58810265  0.49953039  0.97052550    -0.85300
C1552       C  0.57234672  0.48719458  0.98781536     1.02400
O1553       O  0.58255430  0.45862712  0.00626457    -0.78100
O1554       O  0.56785905  0.40689848  0.95269338    -0.78300
C1555       C  0.57214317  0.39065060  0.92850220     1.02300
O1556       O  0.65642719  0.35635344  0.98589205    -0.85600
O1557       O  0.69178310  0.42726086  0.97725339    -0.82700
C1558       C  0.70229200  0.46142144  0.99213582     0.97900
O1559       O  0.68335842  0.48604356  0.99828067    -0.82700
O1560       O  0.64395828  0.48330816  0.53267222    -0.85300
C1561       C  0.64413351  0.45127482  0.54952477     1.02400
O1562       O  0.63556234  0.41579083  0.53651457    -0.78100
O1563       O  0.61018786  0.35745459  0.48558960    -0.81500
C1564       C  0.63458394  0.33545996  0.99222760     1.02300
Cr1565     Cr  0.64585322  0.40395316  0.95551735     1.93700
Cr1566     Cr  0.63568355  0.48824574  0.98478862     1.93200
Cr1567     Cr  0.60095779  0.40981310  0.99529554     1.39100
O1568       O  0.62858527  0.43411497  0.97860458    -1.23300
C1569       C  0.63649601  0.29109420  0.99949433    -0.05700
C1570       C  0.65067021  0.27088645  0.47748010    -0.33100
C1571       C  0.64712145  0.22814443  0.48027473     0.36100
C1572       C  0.63167785  0.21166560  0.50123408    -0.06100
C1573       C  0.62092785  0.23278034  0.02677536    -0.33000
C1574       C  0.62563895  0.27549343  0.02397052     0.36000
H1575       H  0.66146220  0.28293535  0.46050185     0.16400
O1576       O  0.65817487  0.20253133  0.46183011    -0.60500
H1577       H  0.61426981  0.22120837  0.04662440     0.16400
O1578       O  0.62031707  0.30189677  0.04570793    -0.60600
H1579       H  0.59640763  0.30459418  0.03872006     0.43400
H1580       H  0.68217128  0.20322486  0.47191307     0.43300
C1581       C  0.79300517  0.12645708  0.64638786    -0.05700
C1582       C  0.79231876  0.11794893  0.61532198    -0.33100
C1583       C  0.76311095  0.11740655  0.58956184     0.36100
C1584       C  0.73306225  0.12370120  0.59438990    -0.06100
C1585       C  0.73393131  0.13536964  0.62503906    -0.33000
C1586       C  0.76348298  0.13721081  0.65079643     0.36000
H1587       H  0.81449806  0.11062565  0.61093333     0.16400
O1588       O  0.76430589  0.10938846  0.55974930    -0.60500
H1589       H  0.71153276  0.14152309  0.62940332     0.16400
O1590       O  0.76300924  0.14879479  0.68026781    -0.60600
H1591       H  0.75393130  0.12446668  0.68827951     0.43400
H1592       H  0.76721223  0.13680707  0.55107494     0.43300
C1593       C  0.54292661  0.38439478  0.89930741    -0.05700
C1594       C  0.51192515  0.37993875  0.90245509    -0.33100
C1595       C  0.98047549  0.38198473  0.87473029     0.36100
C1596       C  0.98224469  0.38206154  0.84369693    -0.06100
C1597       C  0.51619454  0.38874770  0.84182948    -0.33000
C1598       C  0.54480424  0.38795333  0.86845813     0.36000
H1599       H  0.50971886  0.37735879  0.92588840     0.16400
O1600       O  0.95101253  0.38230612  0.87946634    -0.60500
H1601       H  0.51847092  0.39315783  0.81857012     0.16400
O1602       O  0.57430766  0.39411601  0.86419376    -0.60600
H1603       H  0.57954360  0.36686730  0.85737268     0.43400
H1604       H  0.94738078  0.41178479  0.88274262     0.43300
C1605       C  0.88229196  0.20771394  0.74986867    -0.05700
C1606       C  0.88163103  0.23272152  0.72392685    -0.33100
C1607       C  0.87697083  0.27514429  0.72450593     0.36100
C1608       C  0.87307381  0.29405882  0.75140957    -0.06100
C1609       C  0.87259269  0.26923667  0.77705087    -0.33000
C1610       C  0.87712258  0.22641050  0.77644632     0.36000
H1611       H  0.88449214  0.21937330  0.70274905     0.16400
O1612       O  0.87777808  0.29840332  0.69908729    -0.60500
H1613       H  0.87069124  0.28340549  0.79837976     0.16400
O1614       O  0.87704124  0.20342053  0.80219724    -0.60600
H1615       H  0.90007104  0.20350670  0.81625679     0.43400
H1616       H  0.85512043  0.29728270  0.68408134     0.43300
C1617       C  0.73780733  0.52994353  0.74972804    -0.05700
C1618       C  0.74559661  0.49379637  0.76800206    -0.33100
C1619       C  0.77382731  0.47215846  0.77077318     0.36100
C1620       C  0.79531936  0.48630219  0.75514724    -0.06100
C1621       C  0.78790225  0.52316015  0.73758583    -0.33000
C1622       C  0.75970084  0.54481344  0.73490941     0.36000
H1623       H  0.72890299  0.48121432  0.77926196     0.16400
O1624       O  0.77965729  0.43677559  0.78826648    -0.60500
H1625       H  0.80402570  0.53543029  0.72559293     0.16400
O1626       O  0.75264880  0.57865378  0.71575015    -0.60600
H1627       H  0.76161279  0.60267643  0.73020252     0.43400
H1628       H  0.76828711  0.41427514  0.77311634     0.43300
C1629       C  0.98326311  0.51136457  0.75574496    -0.05700
C1630       C  0.51404888  0.49511286  0.77385861    -0.33100
C1631       C  0.53964699  0.49595915  0.76169647     0.36100
C1632       C  0.53685587  0.51791346  0.73371359    -0.06100
C1633       C  0.50851469  0.53965536  0.71895604    -0.33000
C1634       C  0.98066432  0.53108175  0.72699207     0.36000
H1635       H  0.51555605  0.47560885  0.79399781     0.16400
O1636       O  0.56730890  0.47558475  0.77757537    -0.60500
H1637       H  0.50612918  0.55749259  0.69780438     0.16400
O1638       O  0.95125140  0.54441676  0.70753262    -0.60600
H1639       H  0.94911077  0.57208758  0.71599833     0.43400
H1640       H  0.56325736  0.44697089  0.76884689     0.43300
C1641       C  0.63626769  0.50000412  0.88688516    -0.05700
C1642       C  0.65325893  0.47994425  0.86956216    -0.33100
C1643       C  0.65321916  0.49398868  0.83986123     0.36100
C1644       C  0.63557398  0.52891568  0.82609275    -0.06100
C1645       C  0.61897584  0.54962746  0.84366409    -0.33000
C1646       C  0.61933403  0.53557759  0.87376895     0.36000
H1647       H  0.66667546  0.45266118  0.87901247     0.16400
O1648       O  0.66932520  0.47181153  0.82389600    -0.60500
H1649       H  0.60510119  0.57640290  0.83379294     0.16400
O1650       O  0.60223731  0.55612442  0.88959151    -0.60600
H1651       H  0.58008745  0.54304571  0.88197811     0.43400
H1652       H  0.69227587  0.48215561  0.83247418     0.43300
C1653       C  0.64368334  0.49004240  0.64138983    -0.05700
C1654       C  0.66838161  0.50419959  0.62956974    -0.33100
C1655       C  0.67056218  0.48905373  0.60101362     0.36100
C1656       C  0.64851113  0.45808743  0.58366161    -0.06100
C1657       C  0.62553632  0.44108506  0.59658741    -0.33000
C1658       C  0.62299828  0.45685115  0.62522450     0.36000
H1659       H  0.68555739  0.52869387  0.64175923     0.16400
O1660       O  0.69380073  0.50573276  0.58966159    -0.60500
H1661       H  0.60790598  0.41767589  0.58327446     0.16400
O1662       O  0.59897111  0.44139521  0.63590580    -0.60600
H1663       H  0.60872638  0.41793505  0.64960783     0.43400
H1664       H  0.68554636  0.53276752  0.58069561     0.43300
C1665       C  0.62118918  0.79283496  0.75086651    -0.05700
C1666       C  0.62389632  0.76581739  0.77626814    -0.33100
C1667       C  0.63326731  0.72483569  0.77534699     0.36100
C1668       C  0.64034205  0.70966263  0.74867587    -0.06100
C1669       C  0.63741571  0.73661978  0.72324775    -0.33000
C1670       C  0.62771429  0.77737516  0.72401107     0.36000
H1671       H  0.61955849  0.77673825  0.79744183     0.16400
O1672       O  0.63499734  0.69983367  0.80059717    -0.60500
H1673       H  0.64167881  0.72574559  0.70202555     0.16400
O1674       O  0.62509390  0.80192143  0.69832697    -0.60600
H1675       H  0.60177270  0.79990249  0.68510923     0.43400
H1676       H  0.65818775  0.70124281  0.81422980     0.43300
C1677       C  0.61973872  0.01816010  0.85318840    -0.05700
C1678       C  0.59322095  0.00718443  0.86337836    -0.33100
C1679       C  0.59140446  0.02166466  0.89222289     0.36100
C1680       C  0.61580206  0.04868213  0.91144475    -0.06100
C1681       C  0.64060121  0.06329993  0.89999316    -0.33000
C1682       C  0.64271591  0.04816694  0.87103987     0.36000
H1683       H  0.57450411  0.98517409  0.84979135     0.16400
O1684       O  0.56692014  0.00676261  0.90254615    -0.60500
H1685       H  0.65989473  0.08379086  0.91476225     0.16400
O1686       O  0.66875618  0.06010942  0.86205717    -0.60600
H1687       H  0.66153973  0.08450616  0.84848301     0.43400
H1688       H  0.54907871  0.02620630  0.89428374     0.43300
C1689       C  0.62818120  0.00255930  0.60912162    -0.05700
C1690       C  0.64026397  0.96365627  0.61970471    -0.33100
C1691       C  0.63933662  0.94811729  0.64902150     0.36100
C1692       C  0.62553577  0.97117072  0.66816003    -0.06100
C1693       C  0.61183705  0.00894015  0.65641064    -0.33000
C1694       C  0.61342711  0.02477763  0.62765590     0.36000
H1695       H  0.65159558  0.94597968  0.60587141     0.16400
O1696       O  0.65284235  0.91086829  0.65905259    -0.60500
H1697       H  0.60099071  0.02740264  0.67023896     0.16400
O1698       O  0.60009703  0.06217364  0.61764794    -0.60600
H1699       H  0.61656793  0.08319687  0.62993094     0.43400
H1700       H  0.63470468  0.89009504  0.65101722     0.43300
C1701       C  0.97296635  0.02066715  0.75027582    -0.05700
C1702       C  0.48228998  0.98739267  0.77472904    -0.33100
C1703       C  0.50841691  0.96352369  0.77408882     0.36100
C1704       C  0.52618407  0.97443259  0.75403083    -0.06100
C1705       C  0.51704948  0.00979544  0.73497413    -0.33000
C1706       C  0.99473853  0.03229747  0.73442478     0.36000
H1707       H  0.46846338  0.97753000  0.78977294     0.16400
O1708       O  0.51679063  0.93021573  0.79369895    -0.60500
H1709       H  0.53079806  0.01955172  0.71983243     0.16400
O1710       O  0.98957307  0.06659528  0.71568331    -0.60600
H1711       H  0.97541818  0.05670288  0.69432773     0.43400
H1712       H  0.52951112  0.94193934  0.81492269     0.43300
C1713       C  0.72438166  0.99447545  0.76256365    -0.05700
C1714       C  0.71917554  0.01876121  0.73540195    -0.33100
C1715       C  0.74382849  0.02567585  0.72257713     0.36100
C1716       C  0.77436325  0.00891352  0.73732991    -0.06100
C1717       C  0.77967436  0.98494231  0.76469900    -0.33000
C1718       C  0.75497766  0.97782509  0.77743088     0.36000
H1719       H  0.69541493  0.03064570  0.72301574     0.16400
O1720       O  0.73779380  0.04864808  0.69557117    -0.60500
H1721       H  0.80338479  0.97285306  0.77698573     0.16400
O1722       O  0.76080865  0.95401972  0.80402583    -0.60600
H1723       H  0.76671917  0.97392199  0.82219620     0.43400
H1724       H  0.73061741  0.02831548  0.67767924     0.43300
C1725       C  0.99652450  0.61957608  0.59161892    -0.05700
C1726       C  0.02594163  0.61134614  0.58642827    -0.33100
C1727       C  0.55377229  0.61693251  0.61106898     0.36100
C1728       C  0.55589336  0.62647750  0.64260864    -0.06100
C1729       C  0.52692307  0.63620183  0.64821709    -0.33000
C1730       C  0.49647123  0.63438205  0.62361655     0.36000
H1731       H  0.02575260  0.60187878  0.56303775     0.16400
O1732       O  0.58101985  0.60783503  0.60388946    -0.60500
H1733       H  0.52753762  0.64340583  0.67216244     0.16400
O1734       O  0.97069501  0.64213007  0.62879567    -0.60600
H1735       H  0.46283348  0.61587592  0.63877156     0.43400
H1736       H  0.58176900  0.57728776  0.60439757     0.43300
C1737       C  0.89104734  0.49094787  0.60355068    -0.05700
C1738       C  0.90019427  0.45072378  0.61361152    -0.33100
C1739       C  0.89627889  0.43525976  0.64179202     0.36100
C1740       C  0.88266083  0.46001892  0.65998606    -0.06100
C1741       C  0.87103568  0.49864212  0.64804225    -0.33000
C1742       C  0.87539801  0.51420014  0.62051947     0.36000
H1743       H  0.91182669  0.43215241  0.60057089     0.16400
O1744       O  0.90820102  0.39747737  0.65252693    -0.60500
H1745       H  0.85997515  0.51809775  0.66109393     0.16400
O1746       O  0.86418267  0.55251667  0.61029561    -0.60600
H1747       H  0.88124043  0.57243420  0.62325383     0.43400
H1748       H  0.88925896  0.37778504  0.64475048     0.43300
C1749       C  0.88839125  0.50954175  0.85370141    -0.05700
C1750       C  0.90210072  0.54853427  0.86560845    -0.33100
C1751       C  0.89970719  0.56396852  0.89432831     0.36100
C1752       C  0.88328538  0.54026212  0.91127225    -0.06100
C1753       C  0.86737178  0.50300126  0.89766745    -0.33000
C1754       C  0.86976229  0.48773064  0.86928061     0.36000
H1755       H  0.91611616  0.56593145  0.85364131     0.16400
O1756       O  0.91601926  0.60023943  0.90698463    -0.60500
H1757       H  0.85438894  0.48439732  0.91001748     0.16400
O1758       O  0.85457570  0.45051547  0.85741544    -0.60600
H1759       H  0.83279951  0.45752425  0.84284735     0.43400
H1760       H  0.90000954  0.62198519  0.89878738     0.43300
C1761       C  0.73704081  0.47591639  0.00015182    -0.05700
C1762       C  0.75384414  0.46583988  0.97948201    -0.33100
C1763       C  0.78395415  0.48511501  0.98224826     0.36100
C1764       C  0.79817598  0.52192526  0.50248276    -0.06100
C1765       C  0.78458156  0.52248778  0.52688815    -0.33000
C1766       C  0.75455832  0.50215317  0.52310382     0.36000
H1767       H  0.74292615  0.44410159  0.96001778     0.16400
O1768       O  0.79841231  0.47459072  0.96043794    -0.60500
H1769       H  0.79751844  0.53807699  0.54930272     0.16400
O1770       O  0.74222612  0.50369454  0.54763918    -0.60600
H1771       H  0.73329263  0.53157934  0.54673962     0.43400
H1772       H  0.80971330  0.44873104  0.96841375     0.43300
C1773       C  0.98598016  0.49129062  0.50654095    -0.05700
C1774       C  0.01390352  0.50881332  0.52903895    -0.33100
C1775       C  0.54089348  0.51765250  0.01679134     0.36100
C1776       C  0.54166731  0.50201489  0.98758428    -0.06100
C1777       C  0.51418289  0.48126603  0.96668306    -0.33000
C1778       C  0.98672023  0.47891848  0.47647754     0.36000
H1779       H  0.01319150  0.51996851  0.55175792     0.16400
O1780       O  0.56813623  0.53619997  0.03830337    -0.60500
H1781       H  0.51509376  0.46718910  0.94490346     0.16400
O1782       O  0.95909911  0.46341083  0.45357631    -0.60600
H1783       H  0.95816722  0.43353984  0.45805986     0.43400
H1784       H  0.56789064  0.56542805  0.03171607     0.43300
C1785       C  0.77043389  0.87950474  0.90391702    -0.05700
C1786       C  0.76948919  0.87398194  0.87234286    -0.33100
C1787       C  0.73969287  0.87255065  0.84689277     0.36100
C1788       C  0.70989757  0.87793037  0.85247024    -0.06100
C1789       C  0.71075057  0.88115005  0.88408300    -0.33000
C1790       C  0.74032954  0.88126669  0.90957014     0.36000
H1791       H  0.79195862  0.87215847  0.86717825     0.16400
O1792       O  0.74030396  0.86824875  0.81649289    -0.60500
H1793       H  0.68832756  0.88408292  0.88919296     0.16400
O1794       O  0.73948713  0.88208581  0.94010884    -0.60600
H1795       H  0.72855986  0.90772953  0.94213740     0.43400
H1796       H  0.73866995  0.83804665  0.81229015     0.43300
C1797       C  0.87637788  0.78916199  0.99271007    -0.05700
C1798       C  0.89541563  0.76858040  0.47673746    -0.33100
C1799       C  0.89610270  0.72545988  0.47899887     0.36100
C1800       C  0.88672859  0.70509838  0.50279950    -0.06100
C1801       C  0.87629251  0.72865666  0.52369139    -0.33000
C1802       C  0.85545494  0.76448414  0.00441078     0.36000
H1803       H  0.90180340  0.78346559  0.45779160     0.16400
O1804       O  0.90582295  0.70341989  0.45763355    -0.60500
H1805       H  0.84368620  0.70397064  0.01763842     0.16400
O1806       O  0.83080584  0.78144567  0.01242270    -0.60600
H1807       H  0.84008188  0.78727819  0.03561824     0.43400
H1808       H  0.88542008  0.69411504  0.44077037     0.43300
C1809       C  0.53272388  0.03044378  0.50727825    -0.05700
C1810       C  0.51497155  0.99314328  0.98210541    -0.33100
C1811       C  0.98742136  0.97220225  0.97736768     0.36100
C1812       C  0.96849355  0.97883778  0.99697898    -0.06100
C1813       C  0.98037142  0.01795398  0.51772624    -0.33000
C1814       C  0.51701629  0.03611742  0.52986709     0.36000
H1815       H  0.52605277  0.98858530  0.96398242     0.16400
O1816       O  0.97606378  0.94651582  0.95120570    -0.60500
H1817       H  0.96424388  0.03026296  0.52917783     0.16400
O1818       O  0.52995206  0.06308995  0.55503653    -0.60600
H1819       H  0.51961289  0.08968900  0.54765284     0.43400
H1820       H  0.48407640  0.91888038  0.95840596     0.43300
C1821       C  0.77574417  0.99416645  0.99459128    -0.05700
C1822       C  0.77686151  0.00778413  0.52322182    -0.33100
C1823       C  0.74859885  0.00499891  0.53114240     0.36100
C1824       C  0.71932422  0.99115202  0.50827658    -0.06100
C1825       C  0.71753979  0.98500012  0.97165051    -0.33000
C1826       C  0.74787188  0.98897106  0.96773993     0.36000
H1827       H  0.79955827  0.01722060  0.54144488     0.16400
O1828       O  0.74915801  0.01941631  0.56029602    -0.60500
H1829       H  0.69593012  0.98332616  0.95064483     0.16400
O1830       O  0.75016892  0.98540536  0.93789359    -0.60600
H1831       H  0.74979969  0.01408909  0.93013995     0.43400
H1832       H  0.75199404  0.99468781  0.57384815     0.43300
C1833       C  0.87987342  0.95654603  0.58528580    -0.05700
C1834       C  0.85198845  0.94828488  0.59385631    -0.33100
C1835       C  0.85011518  0.96272015  0.62301538     0.36100
C1836       C  0.87654549  0.98543739  0.64421216    -0.06100
C1837       C  0.90509520  0.99134933  0.63615609    -0.33000
C1838       C  0.90667698  0.97767778  0.60692014     0.36000
H1839       H  0.83076304  0.93295839  0.57695195     0.16400
O1840       O  0.82144284  0.95777494  0.62907959    -0.60500
H1841       H  0.92597928  0.00848185  0.65205698     0.16400
O1842       O  0.93388529  0.98705645  0.59904311    -0.60600
H1843       H  0.94774033  0.96282687  0.60561928     0.43400
H1844       H  0.82351995  0.93191316  0.64131044     0.43300
C1845       C  0.87197628  0.00470445  0.89126276    -0.05700
C1846       C  0.85575356  0.04019293  0.87772257    -0.33100
C1847       C  0.85668755  0.05435379  0.84811237     0.36100
C1848       C  0.87396535  0.03280913  0.83133236    -0.06100
C1849       C  0.89233587  0.99943469  0.84639968    -0.33000
C1850       C  0.89141659  0.98540561  0.87584375     0.36000
H1851       H  0.84113983  0.05587208  0.88933002     0.16400
O1852       O  0.83951425  0.08841650  0.83532845    -0.60500
H1853       H  0.90649637  0.98286325  0.83476769     0.16400
O1854       O  0.90975066  0.95249140  0.88951171    -0.60600
H1855       H  0.89756802  0.92771281  0.87778861     0.43400
H1856       H  0.85545135  0.11202268  0.84196126     0.43300
loop_ 
_geom_bond_atom_site_label_1 
_geom_bond_atom_site_label_2 
_geom_bond_distance 
_geom_bond_site_symmetry_2 
_ccdc_geom_bond_type 
O1          Cr19   2.067       .  S
O1            C9   1.284       .  A
O2          Cr19   1.960       .  S
O2            C3   1.253       .  A
C3            O4   1.275   1_565  A
C3          C453   1.495   1_565  S
O4          Cr20   2.063   1_545  S
O5          Cr20   1.993   1_545  S
O5            C6   1.262   1_545  A
C6            O7   1.250       .  A
C6          C429   1.447   1_565  S
O7          Cr21   1.955       .  S
O8          Cr21   1.954       .  S
O8            C9   1.259       .  A
C9          C393   1.507       .  S
O10         Cr19   2.003       .  S
O10          C18   1.266       .  A
O11         Cr19   2.077       .  S
O11          C12   1.284       .  A
C12          O13   1.255       .  A
C12         C420   1.512       .  S
O13         Cr20   1.952       .  S
O14        Cr484   2.040       .  S
O14          C15   1.278       .  A
C15          O16   1.268       .  A
C15         C441   1.484       .  S
O16        Cr485   1.981       .  S
O17        Cr485   1.973       .  S
O17         C482   1.253   1_554  A
C18         O481   1.254       .  A
C18         C405   1.485       .  S
Cr19         O22   1.770       .  S
Cr20        O478   2.044       .  S
Cr20         O22   1.773       .  S
Cr21        O480   1.969       .  S
Cr21        O481   1.975       .  S
Cr21         O22   1.769       .  S
O23         Cr41   1.977   1_554  S
O23          C31   1.263       .  A
O24         Cr41   1.947       .  S
O24          C25   1.248   1_556  A
C25          O26   1.261       .  A
C25         C381   1.435       .  S
O26         Cr42   1.996       .  S
O27         Cr42   2.025       .  S
O27          C28   1.263       .  A
C28          O29   1.252       .  A
C28         C345   1.479       .  S
O29         Cr43   1.960       .  S
O30         Cr43   2.053       .  S
O30          C31   1.281       .  A
C31         C333   1.510       .  S
O32        Cr505   1.954       .  S
O32         C504   1.247       .  A
O33        Cr505   1.988       .  S
O33          C34   1.272       .  A
C34          O35   1.276       .  A
C34         C360   1.482       .  S
O35        Cr506   2.019       .  S
O36         Cr42   1.948   1_556  S
O36          C37   1.256   1_556  A
C37          O38   1.283       .  A
C37         C372   1.505       .  S
O38         Cr43   2.068       .  S
O39         Cr43   2.003       .  S
O39          C40   1.264       .  A
C40         O496   1.253       .  A
C40         C408   1.484       .  S
Cr41        O496   1.969   1_556  S
Cr41        O497   1.985       .  S
Cr41         O44   1.772   1_556  S
Cr42        O499   2.014   1_554  S
Cr42         O44   1.775       .  S
Cr43         O44   1.767       .  S
O45         Cr63   2.008       .  S
O45          C53   1.268       .  A
O46         Cr63   1.977       .  S
O46          C47   1.259       .  A
C47          O48   1.271   1_565  A
C47         C285   1.495   1_565  S
O48         Cr64   2.020   1_545  S
O49         Cr64   1.983   1_545  S
O49          C50   1.258   1_545  A
C50          O51   1.247       .  A
C50         C321   1.456       .  S
O51         Cr65   1.954       .  S
O52         Cr65   2.003       .  S
O52          C53   1.262       .  A
C53         C396   1.501       .  S
O54         Cr63   2.038       .  S
O54          C62   1.271       .  A
O55         Cr63   2.032       .  S
O55          C56   1.284       .  A
C56          O57   1.261       .  A
C56         C312   1.493       .  S
O57         Cr64   1.968       .  S
O58         Cr64   1.996       .  S
O58          C59   1.269       .  A
C59          O60   1.267       .  A
C59         C300   1.500       .  S
O60         Cr65   2.014       .  S
O61         Cr65   1.963       .  S
O61          C62   1.254       .  A
C62         C273   1.497       .  S
Cr63         O66   1.773       .  S
Cr64         O66   1.775       .  S
Cr65         O66   1.779       .  S
O67         Cr85   2.009       .  S
O67          C75   1.265       .  A
O68         Cr85   1.942       .  S
O68          C69   1.244       .  A
C69          O70   1.261       .  A
C69         C240   1.467       .  S
O70         Cr86   2.008       .  S
O71         Cr86   2.020       .  S
O71          C72   1.272       .  A
C72          O73   1.264       .  A
C72         C261   1.499       .  S
O73         Cr87   1.995       .  S
O74         Cr87   2.006       .  S
O74          C75   1.266       .  A
C75         C336   1.501       .  S
O76         Cr85   1.958       .  S
O76          C84   1.254       .  A
O77         Cr85   2.026       .  S
O77          C78   1.270       .  A
C78          O79   1.268       .  A
C78         C252   1.506       .  S
O79         Cr86   1.997       .  S
O80         Cr86   1.986       .  S
O80          C81   1.266       .  A
C81          O82   1.282       .  A
C81         C225   1.502       .  S
O82         Cr87   2.029       .  S
O83         Cr87   2.047       .  S
O83          C84   1.274       .  A
C84         C276   1.498       .  S
Cr85         O88   1.773       .  S
Cr86         O88   1.776       .  S
Cr87         O88   1.775       .  S
O89        Cr107   2.037       .  S
O89          C97   1.278       .  A
O90        Cr107   1.969       .  S
O90          C91   1.255       .  A
C91          O92   1.262       .  A
C91         C357   1.481       .  S
O92        Cr108   2.014       .  S
O93        Cr108   1.999       .  S
O93          C94   1.259       .  A
C94          O95   1.248       .  A
C94         C237   1.449       .  S
O95        Cr109   1.957       .  S
O96        Cr109   1.961       .  S
O96          C97   1.262       .  A
C97         C204   1.492       .  S
O98        Cr107   2.022       .  S
O98         C106   1.268       .  A
O99        Cr107   2.054       .  S
O99         C100   1.282       .  A
C100        O101   1.260       .  A
C100        C228   1.506       .  S
O101       Cr108   1.961       .  S
O102       Cr108   2.017       .  S
O102        C103   1.275       .  A
C103        O104   1.269       .  A
C103        C348   1.486       .  S
O104       Cr109   1.983       .  S
O105       Cr109   1.970       .  S
O105        C106   1.252       .  A
C106        C216   1.495       .  S
Cr107       O110   1.782       .  S
Cr108       O110   1.783       .  S
Cr109       O110   1.781       .  S
O111       Cr129   1.997       .  S
O111        C119   1.260       .  A
O112       Cr129   1.954       .  S
O112        C113   1.250       .  A
C113        O114   1.254   1_545  A
C113        C324   1.457       .  S
O114       Cr130   1.979   1_565  S
O115       Cr130   2.035   1_565  S
O115        C116   1.273       .  A
C116        O117   1.256   1_565  A
C116        C444   1.494       .  S
O117       Cr131   1.971       .  S
O118       Cr131   2.018       .  S
O118        C119   1.268       .  A
C119        C189   1.502       .  S
O120       Cr129   1.977       .  S
O120        C128   1.260       .  A
O121       Cr129   2.011       .  S
O121        C122   1.267       .  A
C122        O123   1.273       .  A
C122        C456   1.510       .  S
O123       Cr130   2.014       .  S
O124       Cr130   1.958       .  S
O124        C125   1.258       .  A
C125        O126   1.283       .  A
C125        C309   1.492       .  S
O126       Cr131   2.032       .  S
O127       Cr131   2.031       .  S
O127        C128   1.272       .  A
C128        C213   1.506       .  S
Cr129       O132   1.783       .  S
Cr130       O132   1.788       .  S
Cr131       O132   1.782       .  S
O133       Cr151   1.952       .  S
O133        C141   1.267       .  A
O134       Cr151   1.938   1_556  S
O134        C135   1.234   1_556  A
C135        O136   1.253   1_545  A
C135        C432   1.444   1_545  S
O136       Cr152   2.014   1_565  S
O137       Cr152   2.026   1_565  S
O137        C138   1.268   1_565  A
C138        O139   1.253       .  A
C138        C297   1.495   1_545  S
O139       Cr153   1.956       .  S
O140       Cr153   2.084       .  S
O140        C141   1.296       .  A
C141        C192   1.503       .  S
O142       Cr615   1.931       .  S
O142        C614   1.233       .  A
O143       Cr615   1.970       .  S
O143        C144   1.277       .  A
C144        O145   1.292       .  A
C144        C288   1.479       .  S
O145       Cr616   2.055       .  S
O146       Cr152   1.958       .  S
O146        C147   1.259       .  A
C147        O148   1.284       .  A
C147        C417   1.504       .  S
O148       Cr153   2.057       .  S
O149       Cr153   2.016       .  S
O149        C150   1.257       .  A
C150        O606   1.239       .  A
C150        C180   1.479       .  S
Cr151       O606   1.949       .  S
Cr151       O607   1.968   1_554  S
Cr151       O154   1.774       .  S
Cr152       O609   2.052   1_554  S
Cr152       O154   1.769       .  S
Cr153       O154   1.764       .  S
O155       Cr173   2.057       .  S
O155        C163   1.286       .  A
O156       Cr173   1.965       .  S
O156        C157   1.257       .  A
C157        O158   1.270       .  A
C157        C249   1.492       .  S
O158       Cr174   2.031       .  S
O159       Cr174   2.010       .  S
O159        C160   1.254       .  A
C160        O161   1.233       .  A
C160        C384   1.435       .  S
O161       Cr175   1.925       .  S
O162       Cr175   1.964       .  S
O162        C163   1.268       .  A
C163        C201   1.497       .  S
O164       Cr173   2.015       .  S
O164        C172   1.260       .  A
O165       Cr173   2.036       .  S
O165        C166   1.278       .  A
C166        O167   1.260       .  A
C166        C369   1.501       .  S
O167       Cr174   1.968       .  S
O168       Cr638   2.047   1_554  S
O168        C169   1.286       .  A
C169        O170   1.276       .  A
C169        C264   1.486       .  S
O170       Cr639   1.982   1_554  S
O171       Cr639   1.952       .  S
O171        C636   1.241       .  A
C172        O635   1.239       .  A
C172        C177   1.467       .  S
Cr173       O176   1.773       .  S
Cr174       O632   2.054       .  S
Cr174       O176   1.773       .  S
Cr175       O634   1.976       .  S
Cr175       O635   1.939       .  S
Cr175       O176   1.775       .  S
C177        C182   1.416       .  A
C177        C642   1.394       .  A
C178        C179   1.397       .  A
C178        C641   1.395   1_554  A
C178        H183   1.084       .  S
C179        C180   1.420       .  A
C179        O184   1.372       .  S
C180        C645   1.396   1_554  A
C181        C182   1.399       .  A
C181        C644   1.395       .  A
C181        H185   1.084       .  S
C182        O186   1.373       .  S
O184        H188   0.992       .  S
O186        H187   0.992       .  S
C189        C190   1.401       .  A
C189        C194   1.420       .  A
C190        C191   1.408       .  A
C190        H195   1.083       .  S
C191        C192   1.421       .  A
C191        O196   1.373       .  S
C192        C193   1.403       .  A
C193        C194   1.411       .  A
C193        H197   1.083       .  S
C194        O198   1.371       .  S
O196        H200   0.991       .  S
O198        H199   0.991       .  S
C201        C202   1.411       .  A
C201        C206   1.411       .  A
C202       C1131   1.404   1_455  A
C202        H207   1.084       .  S
C203        C204   1.410       .  A
C203       C1130   1.404       .  A
C203        O208   1.372       .  S
C204       C1133   1.410       .  A
C205        C206   1.407       .  A
C205       C1132   1.410   1_455  A
C205        H209   1.084       .  S
C206        O210   1.371       .  S
O208        H212   0.992       .  S
O210        H211   0.992       .  S
C213        C214   1.407       .  A
C213        C218   1.420       .  A
C214        C215   1.403       .  A
C214        H219   1.083       .  S
C215        C216   1.414       .  A
C215        O220   1.372       .  S
C216        C217   1.405       .  A
C217        C218   1.414       .  A
C217        H221   1.083       .  S
C218        O222   1.371       .  S
O220        H224   0.991       .  S
O222        H223   0.992       .  S
C225        C226   1.416       .  A
C225        C230   1.406       .  A
C226        C227   1.407       .  A
C226        H231   1.084       .  S
C227        C228   1.406       .  A
C227        O232   1.371       .  S
C228        C229   1.418       .  A
C229        C230   1.412       .  A
C229        H233   1.083       .  S
C230        O234   1.371       .  S
O232        H236   0.991       .  S
O234        H235   0.992       .  S
C237        C242   1.403       .  A
C237       C1166   1.401       .  A
C238        C239   1.393       .  A
C238       C1165   1.399   1_455  A
C238        H243   1.085       .  S
C239        C240   1.411       .  A
C239        O244   1.372       .  S
C240        C241   1.406       .  A
C241       C1170   1.393   1_455  A
C241        H245   1.084       .  S
C242       C1169   1.395       .  A
C242        O246   1.372       .  S
O244        H248   0.992       .  S
O246        H247   0.992       .  S
C249        C250   1.406       .  A
C249        C254   1.408       .  A
C250        C251   1.403       .  A
C250        H255   1.084       .  S
C251        C252   1.413       .  A
C251        O256   1.371       .  S
C252        C253   1.416       .  A
C253        C254   1.414       .  A
C253        H257   1.083       .  S
C254        O258   1.371       .  S
O256        H260   0.992       .  S
O258        H259   0.992       .  S
C261        C262   1.413       .  A
C261        C266   1.410       .  A
C262        C263   1.401       .  A
C262        H267   1.083       .  S
C263        C264   1.403       .  A
C263        O268   1.372       .  S
C264        C265   1.411       .  A
C265        C266   1.412       .  A
C265        H269   1.084       .  S
C266        O270   1.371       .  S
O268        H272   0.992       .  S
O270        H271   0.991       .  S
C273        C274   1.406       .  A
C273        C278   1.415       .  A
C274        C275   1.405       .  A
C274        H279   1.083       .  S
C275        C276   1.416       .  A
C275        O280   1.372       .  S
C276        C277   1.407       .  A
C277        C278   1.406       .  A
C277        H281   1.083       .  S
C278        O282   1.371       .  S
O280        H284   0.991       .  S
O282        H283   0.991       .  S
C285        C286   1.415   1_545  A
C285        C290   1.409       .  A
C286        C287   1.396   1_565  A
C286        H291   1.083       .  S
C287        C288   1.401       .  A
C287        O292   1.372   1_545  S
C288        C289   1.411       .  A
C289        C290   1.409       .  A
C289        H293   1.084       .  S
C290        O294   1.371       .  S
O292        H296   0.991       .  S
O294        H295   0.991       .  S
C297        C298   1.404       .  A
C297        C302   1.416   1_565  A
C298        C299   1.412       .  A
C298        H303   1.083       .  S
C299        C300   1.420       .  A
C299        O304   1.371       .  S
C300        C301   1.403   1_565  A
C301        C302   1.400       .  A
C301        H305   1.083       .  S
C302        O306   1.373       .  S
O304        H308   0.992       .  S
O306        H307   0.992       .  S
C309        C314   1.405       .  A
C309       C1238   1.417   1_545  A
C310        C311   1.407   1_655  A
C310       C1237   1.418   1_565  A
C310        H315   1.084       .  S
C311        C312   1.403       .  A
C311        O316   1.371       .  S
C312        C313   1.417   1_565  A
C313       C1242   1.408   1_455  A
C313        H317   1.084       .  S
C314       C1241   1.408       .  A
C314        O318   1.371       .  S
O316        H320   0.992       .  S
O318        H319   0.992       .  S
C321        C322   1.404   1_565  A
C321        C326   1.405       .  A
C322        C323   1.386       .  A
C322        H327   1.084       .  S
C323        C324   1.402       .  A
C323        O328   1.371       .  S
C324        C325   1.406   1_545  A
C325        C326   1.394       .  A
C325        H329   1.084       .  S
C326        O330   1.372       .  S
O328        H332   0.992       .  S
O330        H331   0.992       .  S
C333        C334   1.414       .  A
C333       C1266   1.412       .  A
C334       C1263   1.410       .  A
C334        H339   1.083       .  S
C335        C336   1.410       .  A
C335       C1262   1.407       .  A
C335        O340   1.372       .  S
C336        C337   1.412       .  A
C337        C338   1.410   1_455  A
C337        H341   1.083       .  S
C338       C1261   1.411       .  A
C338       O1270   1.371       .  S
O340        H344   0.992       .  S
O342       C1266   1.371       .  S
O342       H1271   0.992       .  S
H343       O1270   0.992       .  S
C345        C346   1.403       .  A
C345        C350   1.409       .  A
C346        C347   1.410       .  A
C346        H351   1.083       .  S
C347        C348   1.416       .  A
C347        O352   1.371       .  S
C348        C349   1.402       .  A
C349        C350   1.394       .  A
C349        H353   1.084       .  S
C350        O354   1.373       .  S
O352        H356   0.992       .  S
O354        H355   0.992       .  S
C357        C358   1.404       .  A
C357        C362   1.409       .  A
C358        C359   1.411       .  A
C358        H363   1.083       .  S
C359        C360   1.415       .  A
C359        O364   1.371       .  S
C360        C361   1.402       .  A
C361        C362   1.397       .  A
C361        H365   1.084       .  S
C362        O366   1.372       .  S
O364        H368   0.991       .  S
O366        H367   0.992       .  S
C369        C370   1.402       .  A
C369        C838   1.419       .  A
C370        C371   1.407       .  A
C370        H375   1.084       .  S
C371        C836   1.423       .  A
C371        O376   1.372       .  S
C372        C373   1.405       .  A
C372        C835   1.424   1_554  A
C373        C374   1.411       .  A
C373        H377   1.083       .  S
C374        C833   1.419       .  A
C374        O378   1.372       .  S
O376        H380   0.992       .  S
O378        H379   0.992       .  S
C381        C382   1.398       .  A
C381        C386   1.407   1_554  A
C382       C1775   1.390       .  A
C382        H387   1.084       .  S
C383        C384   1.409       .  A
C383       C1774   1.390       .  A
C383        O388   1.372       .  S
C384        C385   1.398       .  A
C385       C1778   1.392   1_455  A
C385        H389   1.085       .  S
C386       C1777   1.393       .  A
C386        O390   1.372       .  S
O388        H392   0.991       .  S
O390        H391   0.992       .  S
C393        C394   1.406       .  A
C393        C398   1.422       .  A
C394        C395   1.412       .  A
C394        H399   1.083       .  S
C395        C396   1.419       .  A
C395        O400   1.371       .  S
C396        C397   1.401       .  A
C397        C398   1.403       .  A
C397        H401   1.084       .  S
C398        O402   1.372       .  S
O400        H404   0.992       .  S
O402        H403   0.990       .  S
C405        C410   1.420       .  A
C405        C870   1.397       .  A
C406        C407   1.401       .  A
C406        C869   1.400   1_556  A
C406        H411   1.084       .  S
C407        C408   1.417   1_556  A
C407        O412   1.372       .  S
C408        C409   1.400       .  A
C409        C874   1.401       .  A
C409        H877   1.084       .  S
C410        C873   1.403       .  A
C410        O414   1.372       .  S
O412        H416   0.992       .  S
H413        C873   1.083       .  S
O414        H415   0.991       .  S
C417        C422   1.406       .  A
C417        C882   1.417   1_544  A
C418        C881   1.418   1_565  A
C418       C1347   1.416   1_455  A
C418        H423   1.083       .  S
C419        C420   1.408       .  A
C419       C1346   1.410   1_565  A
C419        O424   1.370       .  S
C420        C885   1.419   1_565  A
C421        C884   1.419   1_545  A
C421       C1350   1.411       .  A
C421        H425   1.083       .  S
C422       C1349   1.410   1_455  A
C422        O426   1.371       .  S
O424       H1356   0.992       .  S
O426        H427   0.992       .  S
H428       O1352   0.991       .  S
C429        C434   1.392       .  A
C429        C894   1.411       .  A
C430        C431   1.394       .  A
C430        C893   1.409       .  A
C430        H435   1.085       .  S
C431        C432   1.400   1_545  A
C431        O436   1.373       .  S
C432        C897   1.406   1_554  A
C433        C434   1.387       .  A
C433        C896   1.414       .  A
C433        H437   1.085       .  S
C434        O438   1.372       .  S
O436        H440   0.991   1_545  S
O438        H439   0.992       .  S
C441        C442   1.412       .  A
C441        C446   1.401       .  A
C442        C443   1.412       .  A
C442        H447   1.084       .  S
C443        C444   1.407       .  A
C443        O448   1.371       .  S
C444        C445   1.414       .  A
C445        C446   1.402       .  A
C445        H449   1.084       .  S
C446        O450   1.372       .  S
O448        H452   0.991       .  S
O450        H451   0.991       .  S
C453        C454   1.402       .  A
C453        C458   1.414   1_545  A
C454        C455   1.414       .  A
C454        H459   1.083       .  S
C455        C456   1.424       .  A
C455        O460   1.371       .  S
C456        C457   1.405       .  A
C457        C458   1.407   1_545  A
C457        H461   1.083   1_545  S
C458        O462   1.371       .  S
O460        H464   0.991       .  S
O462        H463   0.992       .  S
O465       Cr483   2.061       .  S
O465        C473   1.284       .  A
O466       Cr483   1.965       .  S
O466        C467   1.253       .  A
C467        O468   1.272   1_565  A
C467        C917   1.500   1_565  S
O468       Cr484   2.057   1_546  S
O469       Cr484   1.993   1_556  S
O469        C470   1.262   1_556  A
C470        O471   1.247       .  A
C470        C893   1.438   1_565  S
O471       Cr485   1.948       .  S
O472       Cr485   1.973   1_556  S
O472        C473   1.262       .  A
C473        C857   1.511       .  S
O474       Cr483   2.004       .  S
O474        C482   1.264       .  A
O475       Cr483   2.073       .  S
O475        C476   1.284       .  A
C476        O477   1.257   1_556  A
C476        C884   1.511   1_556  S
O477       Cr484   1.954       .  S
O478        C479   1.278       .  A
C479        O480   1.264       .  A
C479        C905   1.478       .  S
C482        C869   1.485   1_556  S
Cr483       O486   1.772       .  S
Cr484       O486   1.776   1_554  S
Cr485       O486   1.778   1_554  S
O487       Cr505   1.966       .  S
O487        C495   1.263       .  A
O488       Cr505   1.928       .  S
O488        C489   1.241       .  A
C489        O490   1.262       .  A
C489        C845   1.441       .  S
O490       Cr506   2.009       .  S
O491       Cr506   2.021       .  S
O491        C492   1.263       .  A
C492        O493   1.254       .  A
C492        C809   1.485       .  S
O493       Cr507   1.967       .  S
O494       Cr507   2.060       .  S
O494        C495   1.283       .  A
C495        C797   1.508       .  S
O497        C498   1.268       .  A
C498        O499   1.274       .  A
C498        C824   1.482       .  S
O500       Cr506   1.958       .  S
O500        C501   1.260       .  A
C501        O502   1.283       .  A
C501        C836   1.507       .  S
O502       Cr507   2.057       .  S
O503       Cr507   2.014       .  S
O503        C504   1.263       .  A
C504        C872   1.487       .  S
Cr505       O508   1.777       .  S
Cr506       O508   1.777       .  S
Cr507       O508   1.775       .  S
O509       Cr527   2.030       .  S
O509        C517   1.270       .  A
O510       Cr527   1.975       .  S
O510        C511   1.258       .  A
C511        O512   1.270       .  A
C511        C749   1.492   1_565  S
O512       Cr528   2.015       .  S
O513       Cr528   1.976       .  S
O513        C514   1.255       .  A
C514        O515   1.249       .  A
C514        C785   1.454       .  S
O515       Cr529   1.954       .  S
O516       Cr529   1.999       .  S
O516        C517   1.261       .  A
C517        C860   1.510       .  S
O518       Cr527   2.040       .  S
O518        C526   1.273       .  A
O519       Cr527   2.042       .  S
O519        C520   1.286       .  A
C520        O521   1.259       .  A
C520        C776   1.495       .  S
O521       Cr528   1.960       .  S
O522       Cr528   2.000       .  S
O522        C523   1.270       .  A
C523        O524   1.266       .  A
C523        C764   1.500       .  S
O524       Cr529   2.008       .  S
O525       Cr529   1.966       .  S
O525        C526   1.256       .  A
C526        C737   1.500       .  S
Cr527       O530   1.777       .  S
Cr528       O530   1.778       .  S
Cr529       O530   1.778       .  S
O531       Cr549   2.013       .  S
O531        C539   1.266       .  A
O532       Cr549   1.942       .  S
O532        C533   1.244       .  A
C533        O534   1.262       .  A
C533        C704   1.464       .  S
O534       Cr550   2.013       .  S
O535       Cr550   2.017       .  S
O535        C536   1.271       .  A
C536        O537   1.263       .  A
C536        C725   1.495       .  S
O537       Cr551   1.993       .  S
O538       Cr551   2.000       .  S
O538        C539   1.265       .  A
C539        C800   1.502       .  S
O540       Cr549   1.956       .  S
O540        C548   1.253       .  A
O541       Cr549   2.033       .  S
O541        C542   1.271       .  A
C542        O543   1.265       .  A
C542        C716   1.503       .  S
O543       Cr550   1.984       .  S
O544       Cr550   1.991       .  S
O544        C545   1.267       .  A
C545        O546   1.282       .  A
C545        C689   1.498       .  S
O546       Cr551   2.024       .  S
O547       Cr551   2.049       .  S
O547        C548   1.273       .  A
C548        C740   1.501       .  S
Cr549       O552   1.770       .  S
Cr550       O552   1.774       .  S
Cr551       O552   1.773       .  S
O553       Cr571   2.037       .  S
O553        C561   1.276       .  A
O554       Cr571   1.959       .  S
O554        C555   1.253       .  A
C555        O556   1.263       .  A
C555        C821   1.477       .  S
O556       Cr572   2.023       .  S
O557       Cr572   1.998       .  S
O557        C558   1.261       .  A
C558        O559   1.250       .  A
C558        C701   1.446       .  S
O559       Cr573   1.950       .  S
O560       Cr573   1.973       .  S
O560        C561   1.261       .  A
C561        C668   1.500       .  S
O562       Cr571   2.002       .  S
O562        C570   1.265       .  A
O563       Cr571   2.055       .  S
O563        C564   1.280       .  A
C564        O565   1.262       .  A
C564        C692   1.506       .  S
O565       Cr572   1.966       .  S
O566       Cr572   2.017       .  S
O566        C567   1.273       .  A
C567        O568   1.269       .  A
C567        C812   1.489       .  S
O568       Cr573   1.989       .  S
O569       Cr573   1.977       .  S
O569        C570   1.257       .  A
C570        C680   1.483       .  S
Cr571       O574   1.779       .  S
Cr572       O574   1.783       .  S
Cr573       O574   1.779       .  S
O575       Cr593   1.999       .  S
O575        C583   1.262       .  A
O576       Cr593   1.958       .  S
O576        C577   1.251       .  A
C577        O578   1.254   1_545  A
C577        C788   1.453       .  S
O578       Cr594   1.969   1_565  S
O579       Cr594   2.028   1_565  S
O579        C580   1.270   1_565  A
C580        O581   1.253       .  A
C580        C908   1.485   1_545  S
O581       Cr595   1.965       .  S
O582       Cr595   2.017       .  S
O582        C583   1.269       .  A
C583        C653   1.499       .  S
O584       Cr593   1.979       .  S
O584        C592   1.260       .  A
O585       Cr593   2.019       .  S
O585        C586   1.268       .  A
C586        O587   1.271       .  A
C586        C920   1.512       .  S
O587       Cr594   2.008       .  S
O588       Cr594   1.964       .  S
O588        C589   1.260       .  A
C589        O590   1.282       .  A
C589        C773   1.491       .  S
O590       Cr595   2.027       .  S
O591       Cr595   2.011       .  S
O591        C592   1.266       .  A
C592        C677   1.498       .  S
Cr593       O596   1.787       .  S
Cr594       O596   1.785       .  S
Cr595       O596   1.782       .  S
O597       Cr615   1.958       .  S
O597        C605   1.272       .  A
O598       Cr615   1.929       .  S
O598        C599   1.225       .  A
C599        O600   1.257       .  A
C599        C896   1.459       .  S
O600       Cr616   2.042       .  S
O601       Cr616   2.019       .  S
O601        C602   1.267       .  A
C602        O603   1.255       .  A
C602        C761   1.493       .  S
O603       Cr617   1.964       .  S
O604       Cr617   2.081       .  S
O604        C605   1.298       .  A
C605        C656   1.500       .  S
O607        C608   1.274       .  A
C608        O609   1.289       .  A
C608        C752   1.479       .  S
O610       Cr616   1.982       .  S
O610        C611   1.265       .  A
C611        O612   1.284       .  A
C611        C881   1.514       .  S
O612       Cr617   2.050       .  S
O613       Cr617   2.020       .  S
O613        C614   1.256       .  A
C614        C644   1.469       .  S
Cr615       O618   1.770       .  S
Cr616       O618   1.764       .  S
Cr617       O618   1.762       .  S
O619       Cr637   2.058       .  S
O619        C627   1.287       .  A
O620       Cr637   1.965       .  S
O620        C621   1.257       .  A
C621        O622   1.268       .  A
C621        C713   1.493       .  S
O622       Cr638   2.023       .  S
O623       Cr638   2.001       .  S
O623        C624   1.250       .  A
C624        O625   1.234   1_556  A
C624        C848   1.433       .  S
O625       Cr639   1.931   1_554  S
O626       Cr639   1.970       .  S
O626        C627   1.271       .  A
C627        C665   1.498       .  S
O628       Cr637   2.016       .  S
O628        C636   1.260       .  A
O629       Cr637   2.035       .  S
O629        C630   1.278       .  A
C630        O631   1.258   1_556  A
C630        C833   1.497   1_556  S
O631       Cr638   1.962   1_554  S
O632        C633   1.287       .  A
C633        O634   1.273       .  A
C633        C728   1.483       .  S
C636        C641   1.480       .  S
Cr637       O640   1.772       .  S
Cr638       O640   1.775       .  S
Cr639       O640   1.777       .  S
C641        C646   1.422       .  A
C642        C643   1.398       .  A
C642        H647   1.084       .  S
C643        C644   1.417       .  A
C643        O648   1.373       .  S
C645        C646   1.400       .  A
C645        H649   1.084       .  S
C646        O650   1.372       .  S
O648        H652   0.992       .  S
O650        H651   0.992       .  S
C653        C654   1.402       .  A
C653        C658   1.419       .  A
C654        C655   1.408       .  A
C654        H659   1.083       .  S
C655        C656   1.420       .  A
C655        O660   1.373       .  S
C656        C657   1.403       .  A
C657        C658   1.408       .  A
C657        H661   1.083       .  S
C658        O662   1.371       .  S
O660        H664   0.990       .  S
O662        H663   0.991       .  S
C665        C666   1.409       .  A
C665        C670   1.411       .  A
C666       C1595   1.405   1_455  A
C666        H671   1.084       .  S
C667       C1594   1.406       .  A
C667        C668   1.411       .  A
C667        O672   1.371       .  S
C668       C1597   1.413       .  A
C669       C1596   1.412   1_455  A
C669        C670   1.410       .  A
C669        H673   1.083       .  S
C670        O674   1.371       .  S
O672        H676   0.992       .  S
O674        H675   0.992       .  S
C677        C678   1.409       .  A
C677        C682   1.416       .  A
C678        C679   1.400       .  A
C678        H683   1.083       .  S
C679        C680   1.409       .  A
C679        O684   1.372       .  S
C680        C681   1.404       .  A
C681        C682   1.410       .  A
C681        H685   1.083       .  S
C682        O686   1.371       .  S
O684        H688   0.992       .  S
O686        H687   0.992       .  S
C689        C690   1.414       .  A
C689        C694   1.406       .  A
C690        C691   1.409       .  A
C690        H695   1.084       .  S
C691        C692   1.410       .  A
C691        O696   1.371       .  S
C692        C693   1.416       .  A
C693        C694   1.409       .  A
C693        H697   1.083       .  S
C694        O698   1.371       .  S
O696        H700   0.992       .  S
O698        H699   0.992       .  S
C701       C1630   1.401       .  A
C701        C706   1.404       .  A
C702       C1629   1.399   1_455  A
C702        C703   1.394       .  A
C702        H707   1.085       .  S
C703        C704   1.410       .  A
C703        O708   1.372       .  S
C704        C705   1.404       .  A
C705       C1634   1.392   1_455  A
C705        H709   1.084       .  S
C706       C1633   1.394       .  A
C706        O710   1.372       .  S
O708        H712   0.991       .  S
O710        H711   0.991       .  S
C713        C714   1.405       .  A
C713        C718   1.410       .  A
C714        C715   1.399       .  A
C714        H719   1.084       .  S
C715        C716   1.414       .  A
C715        O720   1.372       .  S
C716        C717   1.414       .  A
C717        C718   1.414       .  A
C717        H721   1.083       .  S
C718        O722   1.371       .  S
O720        H724   0.992       .  S
O722        H723   0.991       .  S
C725        C726   1.413       .  A
C725        C730   1.409       .  A
C726        C727   1.401       .  A
C726        H731   1.084       .  S
C727        C728   1.401       .  A
C727        O732   1.372       .  S
C728        C729   1.411       .  A
C729        C730   1.410       .  A
C729        H733   1.084       .  S
C730        O734   1.371       .  S
O732        H736   0.992       .  S
O734        H735   0.992       .  S
C737        C738   1.405       .  A
C737        C742   1.417       .  A
C738        C739   1.404       .  A
C738        H743   1.083       .  S
C739        C740   1.418       .  A
C739        O744   1.372       .  S
C740        C741   1.407       .  A
C741        C742   1.408       .  A
C741        H745   1.083       .  S
C742        O746   1.371       .  S
O744        H748   0.991       .  S
O746        H747   0.991       .  S
C749        C750   1.414   1_545  A
C749        C754   1.408       .  A
C750        C751   1.396   1_565  A
C750        H755   1.083       .  S
C751        C752   1.402       .  A
C751        O756   1.372   1_545  S
C752        C753   1.410       .  A
C753        C754   1.407       .  A
C753        H757   1.083       .  S
C754        O758   1.371       .  S
O756        H760   0.991   1_565  S
O758        H759   0.991       .  S
C761        C762   1.402   1_545  A
C761        C766   1.416       .  A
C762        C763   1.410       .  A
C762        H767   1.083       .  S
C763        C764   1.422       .  A
C763        O768   1.371       .  S
C764        C765   1.403   1_565  A
C765        C766   1.402       .  A
C765        H769   1.083       .  S
C766        O770   1.373       .  S
O768        H772   0.991       .  S
O770        H771   0.992       .  S
C773       C1702   1.416   1_545  A
C773        C778   1.404       .  A
C774       C1701   1.418   1_565  A
C774        C775   1.408   1_655  A
C774        H779   1.084       .  S
C775        C776   1.403       .  A
C775        O780   1.371       .  S
C776        C777   1.419   1_565  A
C777       C1706   1.409   1_455  A
C777        H781   1.084       .  S
C778       C1705   1.406       .  A
C778        O782   1.371       .  S
O780        H784   0.992       .  S
O782        H783   0.992       .  S
C785        C786   1.407   1_565  A
C785        C790   1.402       .  A
C786        C787   1.388       .  A
C786        H791   1.084       .  S
C787        C788   1.401       .  A
C787        O792   1.371       .  S
C788        C789   1.406   1_545  A
C789        C790   1.390       .  A
C789        H793   1.084       .  S
C790        O794   1.372       .  S
O792        H796   0.992       .  S
O794        H795   0.992       .  S
C797        C798   1.414       .  A
C797       C1730   1.412       .  A
C798       C1727   1.406       .  A
C798        H803   1.083       .  S
C799       C1726   1.405       .  A
C799        C800   1.411       .  A
C799        O804   1.372       .  S
C800        C801   1.412       .  A
C801        C802   1.410   1_455  A
C801        H805   1.083       .  S
C802       C1725   1.412       .  A
C802       O1734   1.371       .  S
O804        H808   0.992       .  S
O806       C1730   1.371       .  S
O806       H1735   0.992       .  S
H807       O1734   0.992       .  S
C809        C810   1.405       .  A
C809        C814   1.410       .  A
C810        C811   1.413       .  A
C810        H815   1.083       .  S
C811        C812   1.416       .  A
C811        O816   1.371       .  S
C812        C813   1.402       .  A
C813        C814   1.397       .  A
C813        H817   1.084       .  S
C814        O818   1.373       .  S
O816        H820   0.992       .  S
O818        H819   0.992       .  S
C821        C822   1.402       .  A
C821        C826   1.409       .  A
C822        C823   1.409       .  A
C822        H827   1.083       .  S
C823        C824   1.415       .  A
C823        O828   1.371       .  S
C824        C825   1.403       .  A
C825        C826   1.394       .  A
C825        H829   1.084       .  S
C826        O830   1.372       .  S
O828        H832   0.991       .  S
O830        H831   0.991       .  S
C833        C834   1.399   1_554  A
C834        C835   1.404       .  A
C834        H839   1.084       .  S
C835        O840   1.372       .  S
C836        C837   1.405       .  A
C837        C838   1.411       .  A
C837        H841   1.083       .  S
C838        O842   1.372       .  S
O840        H844   0.992       .  S
O842        H843   0.992       .  S
C845        C846   1.393       .  A
C845        C850   1.415       .  A
C846       C1311   1.390       .  A
C846        H851   1.084       .  S
C847       C1310   1.392       .  A
C847        C848   1.408   1_554  A
C847        O852   1.372       .  S
C848        C849   1.397       .  A
C849       C1314   1.391   1_455  A
C849        H853   1.085       .  S
C850       C1313   1.387       .  A
C850        O854   1.373       .  S
O852        H856   0.992       .  S
O854        H855   0.992       .  S
C857        C858   1.404       .  A
C857        C862   1.421       .  A
C858        C859   1.409       .  A
C858        H863   1.083       .  S
C859        C860   1.420       .  A
C859        O864   1.371       .  S
C860        C861   1.406       .  A
C861        C862   1.414       .  A
C861        H865   1.083       .  S
C862        O866   1.372       .  S
O864        H868   0.992       .  S
O866        H867   0.991       .  S
C869        C874   1.417       .  A
C870        C871   1.397       .  A
C870        H875   1.084       .  S
C871        C872   1.421       .  A
C871        O876   1.372       .  S
C872        C873   1.400       .  A
C874        O878   1.372       .  S
O876        H880   0.992       .  S
O878        H879   0.992       .  S
C881        C886   1.408       .  A
C882       C1811   1.412   1_455  A
C882        H887   1.084       .  S
C883       C1810   1.411       .  A
C883        C884   1.408   1_556  A
C883        O888   1.371       .  S
C885       C1814   1.411       .  A
C885        H889   1.083       .  S
C886       C1813   1.412   1_455  A
C886        O890   1.371       .  S
O888       H1820   0.992       .  S
O890        H891   0.992       .  S
H892       O1816   0.991       .  S
C893        C898   1.396   1_544  A
C894        C895   1.397       .  A
C894        H899   1.084       .  S
C895        C896   1.399       .  A
C895        O900   1.372       .  S
C897        C898   1.386       .  A
C897        H901   1.085       .  S
C898        O902   1.372       .  S
O900        H904   0.991   1_545  S
O902        H903   0.991   1_565  S
C905        C906   1.411       .  A
C905        C910   1.400       .  A
C906        C907   1.409       .  A
C906        H911   1.084       .  S
C907        C908   1.405       .  A
C907        O912   1.371       .  S
C908        C909   1.414       .  A
C909        C910   1.400       .  A
C909        H913   1.084       .  S
C910        O914   1.372       .  S
O912        H916   0.991       .  S
O914        H915   0.991       .  S
C917        C918   1.405       .  A
C917        C922   1.413   1_545  A
C918        C919   1.417       .  A
C918        H923   1.083       .  S
C919        C920   1.423       .  A
C919        O924   1.371       .  S
C920        C921   1.405   1_545  A
C921        C922   1.406       .  A
C921        H925   1.083       .  S
C922        O926   1.372       .  S
O924        H928   0.991       .  S
O926        H927   0.991       .  S
O929       Cr947   2.071       .  S
O929        C937   1.288       .  A
O930       Cr947   1.952       .  S
O930        C931   1.250       .  A
C931        O932   1.269   1_565  A
C931       C1381   1.495   1_565  S
O932       Cr948   2.042   1_545  S
O933       Cr948   2.013       .  S
O933        C934   1.262       .  A
C934        O935   1.242       .  A
C934       C1357   1.446       .  S
O935       Cr949   1.941       .  S
O936       Cr949   1.957       .  S
O936        C937   1.261       .  A
C937       C1321   1.510       .  S
O938       Cr947   2.005       .  S
O938        C946   1.260       .  A
O939       Cr947   2.075       .  S
O939        C940   1.287       .  A
C940        O941   1.261       .  A
C940       C1348   1.520       .  S
O941       Cr948   1.963       .  S
O942      Cr1412   2.043   1_554  S
O942        C943   1.284       .  A
C943        O944   1.272       .  A
C943       C1369   1.478       .  S
O944      Cr1413   1.975   1_554  S
O945      Cr1413   1.957       .  S
O945       C1410   1.244       .  A
C946       O1409   1.248       .  A
C946       C1333   1.480       .  S
Cr947       O950   1.774       .  S
Cr948      O1406   2.043       .  S
Cr948       O950   1.780       .  S
Cr949      O1408   1.973       .  S
Cr949      O1409   1.964       .  S
Cr949       O950   1.780       .  S
O951       Cr969   1.968       .  S
O951        C959   1.263       .  A
O952       Cr969   1.936   1_556  S
O952        C953   1.244   1_556  A
C953        O954   1.260       .  A
C953       C1309   1.434       .  S
O954       Cr970   2.000       .  S
O955       Cr970   2.012       .  S
O955        C956   1.262       .  A
C956        O957   1.256       .  A
C956       C1273   1.477       .  S
O957       Cr971   1.966       .  S
O958       Cr971   2.054       .  S
O958        C959   1.282       .  A
C959       C1261   1.503       .  S
O960      Cr1433   1.968       .  S
O960       C1432   1.253       .  A
O961      Cr1433   1.983       .  S
O961        C962   1.267       .  A
C962        O963   1.271       .  A
C962       C1288   1.476       .  S
O963      Cr1434   2.007       .  S
O964       Cr970   1.955   1_556  S
O964        C965   1.258   1_556  A
C965        O966   1.280       .  A
C965       C1300   1.505       .  S
O966       Cr971   2.054       .  S
O967       Cr971   2.006       .  S
O967        C968   1.264       .  A
C968       O1424   1.248       .  A
C968       C1336   1.482       .  S
Cr969      O1424   1.954       .  S
Cr969      O1425   1.986   1_554  S
Cr969       O972   1.773       .  S
Cr970      O1427   2.017   1_554  S
Cr970       O972   1.773       .  S
Cr971       O972   1.771       .  S
O973       Cr991   2.019       .  S
O973        C981   1.269       .  A
O974       Cr991   1.976       .  S
O974        C975   1.259       .  A
C975        O976   1.270   1_565  A
C975       C1213   1.492   1_565  S
O976       Cr992   2.021   1_545  S
O977       Cr992   1.978   1_545  S
O977        C978   1.256   1_545  A
C978        O979   1.249       .  A
C978       C1249   1.455       .  S
O979       Cr993   1.947       .  S
O980       Cr993   2.005       .  S
O980        C981   1.263       .  A
C981       C1324   1.507       .  S
O982       Cr991   2.032       .  S
O982        C990   1.270       .  A
O983       Cr991   2.030       .  S
O983        C984   1.282       .  A
C984        O985   1.258       .  A
C984       C1240   1.487       .  S
O985       Cr992   1.960       .  S
O986       Cr992   2.004       .  S
O986        C987   1.269       .  A
C987        O988   1.265       .  A
C987       C1228   1.500       .  S
O988       Cr993   2.008       .  S
O989       Cr993   1.958       .  S
O989        C990   1.253       .  A
C990       C1201   1.493       .  S
Cr991       O994   1.776       .  S
Cr992       O994   1.779       .  S
Cr993       O994   1.774       .  S
O995      Cr1013   2.013       .  S
O995       C1003   1.267       .  A
O996      Cr1013   1.940       .  S
O996        C997   1.244       .  A
C997        O998   1.263       .  A
C997       C1168   1.472       .  S
O998      Cr1014   2.018       .  S
O999      Cr1014   2.027       .  S
O999       C1000   1.273       .  A
C1000      O1001   1.259       .  A
C1000      C1189   1.496       .  S
O1001     Cr1015   1.972       .  S
O1002     Cr1015   2.008       .  S
O1002      C1003   1.266       .  A
C1003      C1264   1.507       .  S
O1004     Cr1013   1.955       .  S
O1004      C1012   1.251       .  A
O1005     Cr1013   2.022       .  S
O1005      C1006   1.270       .  A
C1006      O1007   1.266       .  A
C1006      C1180   1.500       .  S
O1007     Cr1014   1.990       .  S
O1008     Cr1014   1.990       .  S
O1008      C1009   1.267       .  A
C1009      O1010   1.283       .  A
C1009      C1153   1.498       .  S
O1010     Cr1015   2.028       .  S
O1011     Cr1015   2.038       .  S
O1011      C1012   1.270       .  A
C1012      C1204   1.493       .  S
Cr1013     O1016   1.769       .  S
Cr1014     O1016   1.773       .  S
Cr1015     O1016   1.774       .  S
O1017     Cr1035   2.035       .  S
O1017      C1025   1.276       .  A
O1018     Cr1035   1.963       .  S
O1018      C1019   1.254       .  A
C1019      O1020   1.261       .  A
C1019      C1285   1.471       .  S
O1020     Cr1036   2.009       .  S
O1021     Cr1036   1.989       .  S
O1021      C1022   1.258       .  A
C1022      O1023   1.251       .  A
C1022      C1165   1.443       .  S
O1023     Cr1037   1.954       .  S
O1024     Cr1037   1.968       .  S
O1024      C1025   1.261       .  A
C1025      C1132   1.491       .  S
O1026     Cr1035   2.016       .  S
O1026      C1034   1.268       .  A
O1027     Cr1035   2.057       .  S
O1027      C1028   1.280       .  A
C1028      O1029   1.259       .  A
C1028      C1156   1.507       .  S
O1029     Cr1036   1.961       .  S
O1030     Cr1036   2.006       .  S
O1030      C1031   1.271       .  A
C1031      O1032   1.268       .  A
C1031      C1276   1.482       .  S
O1032     Cr1037   1.987       .  S
O1033     Cr1037   1.967       .  S
O1033      C1034   1.254       .  A
C1034      C1144   1.489       .  S
Cr1035     O1038   1.779       .  S
Cr1036     O1038   1.781       .  S
Cr1037     O1038   1.777       .  S
O1039     Cr1057   1.995       .  S
O1039      C1047   1.259       .  A
O1040     Cr1057   1.949       .  S
O1040      C1041   1.247       .  A
C1041      O1042   1.256   1_545  A
C1041      C1252   1.456       .  S
O1042     Cr1058   1.975   1_565  S
O1043     Cr1058   2.021   1_565  S
O1043      C1044   1.269   1_565  A
C1044      O1045   1.258       .  A
C1044      C1372   1.495   1_545  S
O1045     Cr1059   1.977       .  S
O1046     Cr1059   2.022       .  S
O1046      C1047   1.269       .  A
C1047      C1117   1.503       .  S
O1048     Cr1057   1.968       .  S
O1048      C1056   1.257       .  A
O1049     Cr1057   2.013       .  S
O1049      C1050   1.266       .  A
C1050      O1051   1.270       .  A
C1050      C1384   1.501       .  S
O1051     Cr1058   2.000       .  S
O1052     Cr1058   1.968       .  S
O1052      C1053   1.261       .  A
C1053      O1054   1.284       .  A
C1053      C1237   1.496       .  S
O1054     Cr1059   2.034       .  S
O1055     Cr1059   2.029       .  S
O1055      C1056   1.272       .  A
C1056      C1141   1.499       .  S
Cr1057     O1060   1.783       .  S
Cr1058     O1060   1.780       .  S
Cr1059     O1060   1.773       .  S
O1061     Cr1079   1.960       .  S
O1061      C1069   1.261       .  A
O1062     Cr1079   1.943   1_556  S
O1062      C1063   1.245   1_556  A
C1063      O1064   1.262   1_545  A
C1063      C1360   1.444   1_545  S
O1064     Cr1080   2.004   1_565  S
O1065     Cr1080   2.050   1_565  S
O1065      C1066   1.271   1_565  A
C1066      O1067   1.252       .  A
C1066      C1225   1.490   1_545  S
O1067     Cr1081   1.955       .  S
O1068     Cr1081   2.066       .  S
O1068      C1069   1.285       .  A
C1069      C1120   1.505       .  S
O1070     Cr1543   1.950       .  S
O1070      C1542   1.247       .  A
O1071     Cr1543   1.973       .  S
O1071      C1072   1.267       .  A
C1072      O1073   1.279       .  A
C1072      C1216   1.480       .  S
O1073     Cr1544   2.039       .  S
O1074     Cr1080   1.951   1_556  S
O1074      C1075   1.256   1_556  A
C1075      O1076   1.285       .  A
C1075      C1345   1.512       .  S
O1076     Cr1081   2.078       .  S
O1077     Cr1081   2.013       .  S
O1077      C1078   1.266       .  A
C1078      O1534   1.250       .  A
C1078      C1108   1.476       .  S
Cr1079     O1534   1.956       .  S
Cr1079     O1535   1.974   1_554  S
Cr1079     O1082   1.768       .  S
Cr1080     O1537   2.037   1_554  S
Cr1080     O1082   1.772       .  S
Cr1081     O1082   1.771       .  S
O1083     Cr1101   2.047       .  S
O1083      C1091   1.283       .  A
O1084     Cr1101   1.964       .  S
O1084      C1085   1.256       .  A
C1085      O1086   1.267       .  A
C1085      C1177   1.486       .  S
O1086     Cr1102   2.023       .  S
O1087     Cr1102   1.999       .  S
O1087      C1088   1.255       .  A
C1088      O1089   1.236       .  A
C1088      C1312   1.437       .  S
O1089     Cr1103   1.929       .  S
O1090     Cr1103   1.966       .  S
O1090      C1091   1.267       .  A
C1091      C1129   1.491       .  S
O1092     Cr1101   2.014       .  S
O1092      C1100   1.261       .  A
O1093     Cr1101   2.033       .  S
O1093      C1094   1.276       .  A
C1094      O1095   1.256       .  A
C1094      C1297   1.489       .  S
O1095     Cr1102   1.951       .  S
O1096     Cr1566   2.046   1_554  S
O1096      C1097   1.287       .  A
C1097      O1098   1.274       .  A
C1097      C1192   1.482       .  S
O1098     Cr1567   1.974   1_554  S
O1099     Cr1567   1.947       .  S
O1099      C1564   1.239       .  A
C1100      O1563   1.241       .  A
C1100      C1105   1.471       .  S
Cr1101     O1104   1.776       .  S
Cr1102     O1560   2.034       .  S
Cr1102     O1104   1.773       .  S
Cr1103     O1562   1.982       .  S
Cr1103     O1563   1.943       .  S
Cr1103     O1104   1.776       .  S
C1105      C1570   1.395       .  A
C1105      C1110   1.417       .  A
C1106      C1569   1.397       .  A
C1106      C1107   1.400       .  A
C1106      H1111   1.084       .  S
C1107      C1108   1.415   1_556  A
C1107      O1112   1.373       .  S
C1108      C1573   1.400       .  A
C1109      C1572   1.396       .  A
C1109      C1110   1.399       .  A
C1109      H1113   1.084       .  S
C1110      O1114   1.373       .  S
O1112      H1116   0.992       .  S
O1114      H1115   0.992       .  S
C1117      C1118   1.401       .  A
C1117      C1122   1.421       .  A
C1118      C1119   1.407       .  A
C1118      H1123   1.083       .  S
C1119      C1120   1.421       .  A
C1119      O1124   1.372       .  S
C1120      C1121   1.404       .  A
C1121      C1122   1.410       .  A
C1121      H1125   1.083       .  S
C1122      O1126   1.371       .  S
O1124      H1128   0.993       .  S
O1126      H1127   0.991       .  S
C1129      C1130   1.409       .  A
C1129      C1134   1.409       .  A
C1130      H1135   1.084       .  S
C1131      C1132   1.408       .  A
C1131      O1136   1.372       .  S
C1133      C1134   1.403       .  A
C1133      H1137   1.084       .  S
C1134      O1138   1.371       .  S
O1136      H1140   0.992       .  S
O1138      H1139   0.992       .  S
C1141      C1142   1.405       .  A
C1141      C1146   1.420       .  A
C1142      C1143   1.398       .  A
C1142      H1147   1.083       .  S
C1143      C1144   1.414       .  A
C1143      O1148   1.373       .  S
C1144      C1145   1.404       .  A
C1145      C1146   1.412       .  A
C1145      H1149   1.083       .  S
C1146      O1150   1.371       .  S
O1148      H1152   0.992       .  S
O1150      H1151   0.992       .  S
C1153      C1154   1.414       .  A
C1153      C1158   1.406       .  A
C1154      C1155   1.408       .  A
C1154      H1159   1.084       .  S
C1155      C1156   1.409       .  A
C1155      O1160   1.371       .  S
C1156      C1157   1.418       .  A
C1157      C1158   1.411       .  A
C1157      H1161   1.083       .  S
C1158      O1162   1.371       .  S
O1160      H1164   0.991       .  S
O1162      H1163   0.992       .  S
C1165      C1170   1.402       .  A
C1166      C1167   1.397       .  A
C1166      H1171   1.085       .  S
C1167      C1168   1.411       .  A
C1167      O1172   1.372       .  S
C1168      C1169   1.407       .  A
C1169      H1173   1.084       .  S
C1170      O1174   1.372       .  S
O1172      H1176   0.992       .  S
O1174      H1175   0.991       .  S
C1177      C1178   1.405       .  A
C1177      C1182   1.406       .  A
C1178      C1179   1.401       .  A
C1178      H1183   1.084       .  S
C1179      C1180   1.413       .  A
C1179      O1184   1.372       .  S
C1180      C1181   1.414       .  A
C1181      C1182   1.411       .  A
C1181      H1185   1.083       .  S
C1182      O1186   1.371       .  S
O1184      H1188   0.992       .  S
O1186      H1187   0.992       .  S
C1189      C1190   1.414       .  A
C1189      C1194   1.409       .  A
C1190      C1191   1.395       .  A
C1190      H1195   1.083       .  S
C1191      C1192   1.400       .  A
C1191      O1196   1.373       .  S
C1192      C1193   1.412       .  A
C1193      C1194   1.412       .  A
C1193      H1197   1.083       .  S
C1194      O1198   1.371       .  S
O1196      H1200   0.992       .  S
O1198      H1199   0.992       .  S
C1201      C1202   1.405       .  A
C1201      C1206   1.416       .  A
C1202      C1203   1.402       .  A
C1202      H1207   1.083       .  S
C1203      C1204   1.417       .  A
C1203      O1208   1.372       .  S
C1204      C1205   1.405       .  A
C1205      C1206   1.403       .  A
C1205      H1209   1.083       .  S
C1206      O1210   1.372       .  S
O1208      H1212   0.991       .  S
O1210      H1211   0.992       .  S
C1213      C1214   1.412       .  A
C1213      C1218   1.408       .  A
C1214      C1215   1.396       .  A
C1214      H1219   1.083   1_545  S
C1215      C1216   1.400       .  A
C1215      O1220   1.372       .  S
C1216      C1217   1.412       .  A
C1217      C1218   1.411       .  A
C1217      H1221   1.084       .  S
C1218      O1222   1.371       .  S
O1220      H1224   0.991       .  S
O1222      H1223   0.991       .  S
C1225      C1226   1.402       .  A
C1225      C1230   1.414   1_565  A
C1226      C1227   1.412       .  A
C1226      H1231   1.083       .  S
C1227      C1228   1.421       .  A
C1227      O1232   1.371       .  S
C1228      C1229   1.402   1_565  A
C1229      C1230   1.402       .  A
C1229      H1233   1.083       .  S
C1230      O1234   1.373       .  S
O1232      H1236   0.991       .  S
O1234      H1235   0.992       .  S
C1237      C1242   1.404       .  A
C1238      C1239   1.405       .  A
C1238      H1243   1.084       .  S
C1239      C1240   1.402       .  A
C1239      O1244   1.372       .  S
C1240      C1241   1.416   1_565  A
C1241      H1245   1.084       .  S
C1242      O1246   1.371       .  S
O1244      H1248   0.991       .  S
O1246      H1247   0.991       .  S
C1249      C1250   1.405   1_565  A
C1249      C1254   1.404       .  A
C1250      C1251   1.389       .  A
C1250      H1255   1.084       .  S
C1251      C1252   1.406       .  A
C1251      O1256   1.372       .  S
C1252      C1253   1.404   1_545  A
C1253      C1254   1.385       .  A
C1253      H1257   1.084       .  S
C1254      O1258   1.372       .  S
O1256      H1260   0.992       .  S
O1258      H1259   0.992       .  S
C1261      C1262   1.412   1_655  A
C1262      H1267   1.083       .  S
C1263      C1264   1.413       .  A
C1263      O1268   1.372       .  S
C1264      C1265   1.412       .  A
C1265      C1266   1.411       .  A
C1265      H1269   1.083       .  S
O1268      H1272   0.992       .  S
C1273      C1274   1.404       .  A
C1273      C1278   1.408       .  A
C1274      C1275   1.409       .  A
C1274      H1279   1.083       .  S
C1275      C1276   1.414       .  A
C1275      O1280   1.371       .  S
C1276      C1277   1.403       .  A
C1277      C1278   1.394       .  A
C1277      H1281   1.084       .  S
C1278      O1282   1.373       .  S
O1280      H1284   0.992       .  S
O1282      H1283   0.992       .  S
C1285      C1286   1.402       .  A
C1285      C1290   1.406       .  A
C1286      C1287   1.407       .  A
C1286      H1291   1.083       .  S
C1287      C1288   1.414       .  A
C1287      O1292   1.371       .  S
C1288      C1289   1.401       .  A
C1289      C1290   1.393       .  A
C1289      H1293   1.084       .  S
C1290      O1294   1.372       .  S
O1292      H1296   0.991       .  S
O1294      H1295   0.991       .  S
C1297      C1298   1.401       .  A
C1297      C1766   1.417       .  A
C1298      C1299   1.404       .  A
C1298      H1303   1.084       .  S
C1299      C1764   1.421       .  A
C1299      O1304   1.373       .  S
C1300      C1763   1.422   1_554  A
C1300      C1301   1.406       .  A
C1301      C1302   1.411       .  A
C1301      H1305   1.083       .  S
C1302      C1761   1.419       .  A
C1302      O1306   1.372       .  S
O1304      H1308   0.992       .  S
O1306      H1307   0.992       .  S
C1309      C1310   1.399   1_655  A
C1309      C1314   1.407   1_554  A
C1310      H1315   1.085       .  S
C1311      C1312   1.416       .  A
C1311      O1316   1.374       .  S
C1312      C1313   1.390       .  A
C1313      H1317   1.085       .  S
C1314      O1318   1.373       .  S
O1316      H1320   0.991       .  S
O1318      H1319   0.992       .  S
C1321      C1322   1.405       .  A
C1321      C1326   1.422       .  A
C1322      C1323   1.413       .  A
C1322      H1327   1.083       .  S
C1323      C1324   1.421       .  A
C1323      O1328   1.371       .  S
C1324      C1325   1.402       .  A
C1325      C1326   1.408       .  A
C1325      H1329   1.083       .  S
C1326      O1330   1.372       .  S
O1328      H1332   0.991       .  S
O1330      H1331   0.990       .  S
C1333      C1798   1.400       .  A
C1333      C1338   1.415       .  A
C1334      C1797   1.396       .  A
C1334      C1335   1.396       .  A
C1334      H1339   1.084       .  S
C1335      C1336   1.421   1_556  A
C1335      O1340   1.372       .  S
C1336      C1337   1.397       .  A
C1337      C1802   1.398       .  A
C1337      H1805   1.084       .  S
C1338      C1801   1.401       .  A
C1338      O1342   1.372       .  S
O1340      H1344   0.992       .  S
H1341      C1801   1.084       .  S
O1342      H1343   0.992       .  S
C1345      C1810   1.419   1_544  A
C1345      C1350   1.408       .  A
C1346      C1809   1.417       .  A
C1346      H1351   1.083   1_545  S
C1347      C1348   1.411       .  A
C1347      O1352   1.371       .  S
C1348      C1813   1.420   1_565  A
C1349      C1812   1.418   1_544  A
C1349      H1353   1.083       .  S
C1350      O1354   1.371       .  S
O1354      H1355   0.992       .  S
C1357      C1822   1.405   1_565  A
C1357      C1362   1.401       .  A
C1358      C1821   1.409   1_554  A
C1358      C1359   1.391       .  A
C1358      H1363   1.085       .  S
C1359      C1360   1.397       .  A
C1359      O1364   1.372       .  S
C1360      C1825   1.410   1_554  A
C1361      C1824   1.406       .  A
C1361      C1362   1.396       .  A
C1361      H1365   1.085       .  S
C1362      O1366   1.371       .  S
O1364      H1368   0.992       .  S
O1366      H1367   0.991       .  S
C1369      C1370   1.411       .  A
C1369      C1374   1.400       .  A
C1370      C1371   1.411       .  A
C1370      H1375   1.084       .  S
C1371      C1372   1.409       .  A
C1371      O1376   1.371       .  S
C1372      C1373   1.414       .  A
C1373      C1374   1.396       .  A
C1373      H1377   1.084   1_565  S
C1374      O1378   1.372       .  S
O1376      H1380   0.991       .  S
O1378      H1379   0.991       .  S
C1381      C1382   1.404       .  A
C1381      C1386   1.416   1_545  A
C1382      C1383   1.415       .  A
C1382      H1387   1.083       .  S
C1383      C1384   1.422       .  A
C1383      O1388   1.371       .  S
C1384      C1385   1.401   1_545  A
C1385      C1386   1.400       .  A
C1385      H1389   1.083       .  S
C1386      O1390   1.373       .  S
O1388      H1392   0.991       .  S
O1390      H1391   0.992       .  S
O1393     Cr1411   2.077       .  S
O1393      C1401   1.290       .  A
O1394     Cr1411   1.951       .  S
O1394      C1395   1.252       .  A
C1395      O1396   1.270   1_565  A
C1395      C1845   1.493   1_565  S
O1396     Cr1412   2.040   1_545  S
O1397     Cr1412   2.019       .  S
O1397      C1398   1.261       .  A
C1398      O1399   1.238   1_556  A
C1398      C1821   1.448       .  S
O1399     Cr1413   1.936   1_554  S
O1400     Cr1413   1.953       .  S
O1400      C1401   1.263       .  A
C1401      C1785   1.506       .  S
O1402     Cr1411   2.005       .  S
O1402      C1410   1.259       .  A
O1403     Cr1411   2.064       .  S
O1403      C1404   1.284       .  A
C1404      O1405   1.258   1_556  A
C1404      C1812   1.510       .  S
O1405     Cr1412   1.955   1_554  S
O1406      C1407   1.280       .  A
C1407      O1408   1.269       .  A
C1407      C1833   1.477       .  S
C1410      C1797   1.481       .  S
Cr1411     O1414   1.768       .  S
Cr1412     O1414   1.771       .  S
Cr1413     O1414   1.776       .  S
O1415     Cr1433   1.966       .  S
O1415      C1423   1.261       .  A
O1416     Cr1433   1.944       .  S
O1416      C1417   1.250       .  A
C1417      O1418   1.261       .  A
C1417      C1773   1.432       .  S
O1418     Cr1434   1.990       .  S
O1419     Cr1434   2.025       .  S
O1419      C1420   1.262       .  A
C1420      O1421   1.255       .  A
C1420      C1737   1.486       .  S
O1421     Cr1435   1.971       .  S
O1422     Cr1435   2.048       .  S
O1422      C1423   1.279       .  A
C1423      C1725   1.504       .  S
O1425      C1426   1.270       .  A
C1426      O1427   1.275       .  A
C1426      C1752   1.484       .  S
O1428     Cr1434   1.945       .  S
O1428      C1429   1.255       .  A
C1429      O1430   1.281       .  A
C1429      C1764   1.494       .  S
O1430     Cr1435   2.057       .  S
O1431     Cr1435   2.002       .  S
O1431      C1432   1.264       .  A
C1432      C1800   1.481       .  S
Cr1433     O1436   1.773       .  S
Cr1434     O1436   1.777       .  S
Cr1435     O1436   1.771       .  S
O1437     Cr1455   2.011       .  S
O1437      C1445   1.268       .  A
O1438     Cr1455   1.970       .  S
O1438      C1439   1.257       .  A
C1439      O1440   1.270   1_565  A
C1439      C1677   1.494   1_565  S
O1440     Cr1456   2.025   1_545  S
O1441     Cr1456   1.982   1_545  S
O1441      C1442   1.258   1_545  A
C1442      O1443   1.249       .  A
C1442      C1713   1.456       .  S
O1443     Cr1457   1.949       .  S
O1444     Cr1457   2.005       .  S
O1444      C1445   1.263       .  A
C1445      C1788   1.501       .  S
O1446     Cr1455   2.033       .  S
O1446      C1454   1.269       .  A
O1447     Cr1455   2.028       .  S
O1447      C1448   1.284       .  A
C1448      O1449   1.261       .  A
C1448      C1704   1.491       .  S
O1449     Cr1456   1.966       .  S
O1450     Cr1456   2.002       .  S
O1450      C1451   1.269       .  A
C1451      O1452   1.267       .  A
C1451      C1692   1.505       .  S
O1452     Cr1457   2.016       .  S
O1453     Cr1457   1.967       .  S
O1453      C1454   1.256       .  A
C1454      C1665   1.499       .  S
Cr1455     O1458   1.781       .  S
Cr1456     O1458   1.782       .  S
Cr1457     O1458   1.780       .  S
O1459     Cr1477   2.010       .  S
O1459      C1467   1.265       .  A
O1460     Cr1477   1.939       .  S
O1460      C1461   1.242       .  A
C1461      O1462   1.262       .  A
C1461      C1632   1.468       .  S
O1462     Cr1478   2.017       .  S
O1463     Cr1478   2.025       .  S
O1463      C1464   1.272       .  A
C1464      O1465   1.261       .  A
C1464      C1653   1.499       .  S
O1465     Cr1479   1.980       .  S
O1466     Cr1479   2.009       .  S
O1466      C1467   1.268       .  A
C1467      C1728   1.505       .  S
O1468     Cr1477   1.963       .  S
O1468      C1476   1.255       .  A
O1469     Cr1477   2.032       .  S
O1469      C1470   1.272       .  A
C1470      O1471   1.265       .  A
C1470      C1644   1.503       .  S
O1471     Cr1478   1.986       .  S
O1472     Cr1478   1.987       .  S
O1472      C1473   1.266       .  A
C1473      O1474   1.283       .  A
C1473      C1617   1.495       .  S
O1474     Cr1479   2.026       .  S
O1475     Cr1479   2.036       .  S
O1475      C1476   1.271       .  A
C1476      C1668   1.498       .  S
Cr1477     O1480   1.773       .  S
Cr1478     O1480   1.779       .  S
Cr1479     O1480   1.770       .  S
O1481     Cr1499   2.033       .  S
O1481      C1489   1.275       .  A
O1482     Cr1499   1.964       .  S
O1482      C1483   1.254       .  A
C1483      O1484   1.262       .  A
C1483      C1749   1.480       .  S
O1484     Cr1500   2.021       .  S
O1485     Cr1500   1.993       .  S
O1485      C1486   1.261       .  A
C1486      O1487   1.250       .  A
C1486      C1629   1.443       .  S
O1487     Cr1501   1.949       .  S
O1488     Cr1501   1.978       .  S
O1488      C1489   1.262       .  A
C1489      C1596   1.499       .  S
O1490     Cr1499   2.004       .  S
O1490      C1498   1.265       .  A
O1491     Cr1499   2.055       .  S
O1491      C1492   1.280       .  A
C1492      O1493   1.260       .  A
C1492      C1620   1.504       .  S
O1493     Cr1500   1.960       .  S
O1494     Cr1500   2.010       .  S
O1494      C1495   1.272       .  A
C1495      O1496   1.270       .  A
C1495      C1740   1.493       .  S
O1496     Cr1501   1.996       .  S
O1497     Cr1501   1.969       .  S
O1497      C1498   1.255       .  A
C1498      C1608   1.479       .  S
Cr1499     O1502   1.781       .  S
Cr1500     O1502   1.781       .  S
Cr1501     O1502   1.780       .  S
O1503     Cr1521   1.998       .  S
O1503      C1511   1.261       .  A
O1504     Cr1521   1.955       .  S
O1504      C1505   1.249       .  A
C1505      O1506   1.255       .  A
C1505      C1716   1.457       .  S
O1506     Cr1522   1.976       .  S
O1507     Cr1522   2.029   1_565  S
O1507      C1508   1.272   1_565  A
C1508      O1509   1.257       .  A
C1508      C1836   1.491   1_545  S
O1509     Cr1523   1.971       .  S
O1510     Cr1523   2.015       .  S
O1510      C1511   1.270       .  A
C1511      C1581   1.501       .  S
O1512     Cr1521   1.970       .  S
O1512      C1520   1.256       .  A
O1513     Cr1521   2.005       .  S
O1513      C1514   1.266       .  A
C1514      O1515   1.272       .  A
C1514      C1848   1.502       .  S
O1515     Cr1522   2.007       .  S
O1516     Cr1522   1.963       .  S
O1516      C1517   1.259       .  A
C1517      O1518   1.284       .  A
C1517      C1701   1.495       .  S
O1518     Cr1523   2.037       .  S
O1519     Cr1523   2.017       .  S
O1519      C1520   1.268       .  A
C1520      C1605   1.494       .  S
Cr1521     O1524   1.784       .  S
Cr1522     O1524   1.780       .  S
Cr1523     O1524   1.776       .  S
O1525     Cr1543   1.955       .  S
O1525      C1533   1.261       .  A
O1526     Cr1543   1.941       .  S
O1526      C1527   1.244       .  A
C1527      O1528   1.260   1_545  A
C1527      C1824   1.442   1_545  S
O1528     Cr1544   2.004   1_565  S
O1529     Cr1544   2.043       .  S
O1529      C1530   1.272       .  A
C1530      O1531   1.256       .  A
C1530      C1689   1.497       .  S
O1531     Cr1545   1.967       .  S
O1532     Cr1545   2.065       .  S
O1532      C1533   1.284       .  A
C1533      C1584   1.502       .  S
O1535      C1536   1.267       .  A
C1536      O1537   1.279       .  A
C1536      C1680   1.480       .  S
O1538     Cr1544   1.956       .  S
O1538      C1539   1.257       .  A
C1539      O1540   1.282       .  A
C1539      C1809   1.510       .  S
O1540     Cr1545   2.067       .  S
O1541     Cr1545   2.013       .  S
O1541      C1542   1.266       .  A
C1542      C1572   1.474       .  S
Cr1543     O1546   1.772       .  S
Cr1544     O1546   1.771       .  S
Cr1545     O1546   1.775       .  S
O1547     Cr1565   2.054       .  S
O1547      C1555   1.288       .  A
O1548     Cr1565   1.968       .  S
O1548      C1549   1.256       .  A
C1549      O1550   1.266       .  A
C1549      C1641   1.498       .  S
O1550     Cr1566   2.020       .  S
O1551     Cr1566   2.006       .  S
O1551      C1552   1.251       .  A
C1552      O1553   1.233   1_556  A
C1552      C1776   1.435       .  S
O1553     Cr1567   1.931   1_554  S
O1554     Cr1567   1.965       .  S
O1554      C1555   1.270       .  A
C1555      C1593   1.495       .  S
O1556     Cr1565   2.017       .  S
O1556      C1564   1.259       .  A
O1557     Cr1565   2.032       .  S
O1557      C1558   1.279       .  A
C1558      O1559   1.260       .  A
C1558      C1761   1.497   1_556  S
O1559     Cr1566   1.968       .  S
O1560      C1561   1.282       .  A
C1561      O1562   1.273       .  A
C1561      C1656   1.484       .  S
C1564      C1569   1.474       .  S
Cr1565     O1568   1.773       .  S
Cr1566     O1568   1.776       .  S
Cr1567     O1568   1.780       .  S
C1569      C1574   1.415   1_556  A
C1570      C1571   1.399       .  A
C1570      H1575   1.084       .  S
C1571      C1572   1.418       .  A
C1571      O1576   1.373       .  S
C1573      C1574   1.405       .  A
C1573      H1577   1.084       .  S
C1574      O1578   1.372       .  S
O1576      H1580   0.992       .  S
O1578      H1579   0.992       .  S
C1581      C1582   1.401       .  A
C1581      C1586   1.421       .  A
C1582      C1583   1.402       .  A
C1582      H1587   1.083       .  S
C1583      C1584   1.420       .  A
C1583      O1588   1.372       .  S
C1584      C1585   1.404       .  A
C1585      C1586   1.412       .  A
C1585      H1589   1.083       .  S
C1586      O1590   1.372       .  S
O1588      H1592   0.991       .  S
O1590      H1591   0.991       .  S
C1593      C1594   1.409       .  A
C1593      C1598   1.409       .  A
C1594      H1599   1.084       .  S
C1595      C1596   1.411       .  A
C1595      O1600   1.372       .  S
C1597      C1598   1.408       .  A
C1597      H1601   1.083       .  S
C1598      O1602   1.372       .  S
O1600      H1604   0.992       .  S
O1602      H1603   0.991       .  S
C1605      C1606   1.407       .  A
C1605      C1610   1.416       .  A
C1606      C1607   1.398       .  A
C1606      H1611   1.083       .  S
C1607      C1608   1.408       .  A
C1607      O1612   1.372       .  S
C1608      C1609   1.405       .  A
C1609      C1610   1.410       .  A
C1609      H1613   1.084       .  S
C1610      O1614   1.371       .  S
O1612      H1616   0.992       .  S
O1614      H1615   0.992       .  S
C1617      C1618   1.414       .  A
C1617      C1622   1.405       .  A
C1618      C1619   1.408       .  A
C1618      H1623   1.084       .  S
C1619      C1620   1.409       .  A
C1619      O1624   1.371       .  S
C1620      C1621   1.417       .  A
C1621      C1622   1.408       .  A
C1621      H1625   1.083       .  S
C1622      O1626   1.371       .  S
O1624      H1628   0.992       .  S
O1626      H1627   0.991       .  S
C1629      C1634   1.406       .  A
C1630      C1631   1.395       .  A
C1630      H1635   1.085       .  S
C1631      C1632   1.409       .  A
C1631      O1636   1.372       .  S
C1632      C1633   1.406       .  A
C1633      H1637   1.084       .  S
C1634      O1638   1.373       .  S
O1636      H1640   0.992       .  S
O1638      H1639   0.991       .  S
C1641      C1642   1.407       .  A
C1641      C1646   1.411       .  A
C1642      C1643   1.401       .  A
C1642      H1647   1.084       .  S
C1643      C1644   1.414       .  A
C1643      O1648   1.372       .  S
C1644      C1645   1.413       .  A
C1645      C1646   1.414       .  A
C1645      H1649   1.083       .  S
C1646      O1650   1.371       .  S
O1648      H1652   0.992       .  S
O1650      H1651   0.991       .  S
C1653      C1654   1.414       .  A
C1653      C1658   1.410       .  A
C1654      C1655   1.397       .  A
C1654      H1659   1.083       .  S
C1655      C1656   1.402       .  A
C1655      O1660   1.373       .  S
C1656      C1657   1.411       .  A
C1657      C1658   1.413       .  A
C1657      H1661   1.083       .  S
C1658      O1662   1.370       .  S
O1660      H1664   0.992       .  S
O1662      H1663   0.992       .  S
C1665      C1666   1.409       .  A
C1665      C1670   1.414       .  A
C1666      C1667   1.407       .  A
C1666      H1671   1.083       .  S
C1667      C1668   1.415       .  A
C1667      O1672   1.372       .  S
C1668      C1669   1.407       .  A
C1669      C1670   1.404       .  A
C1669      H1673   1.083       .  S
C1670      O1674   1.371       .  S
O1672      H1676   0.991       .  S
O1674      H1675   0.992       .  S
C1677      C1678   1.413       .  A
C1677      C1682   1.408       .  A
C1678      C1679   1.395       .  A
C1678      H1683   1.082   1_545  S
C1679      C1680   1.400       .  A
C1679      O1684   1.372       .  S
C1680      C1681   1.412       .  A
C1681      C1682   1.412       .  A
C1681      H1685   1.084       .  S
C1682      O1686   1.370       .  S
O1684      H1688   0.991       .  S
O1686      H1687   0.991       .  S
C1689      C1690   1.404   1_545  A
C1689      C1694   1.414       .  A
C1690      C1691   1.414       .  A
C1690      H1695   1.083       .  S
C1691      C1692   1.421       .  A
C1691      O1696   1.371       .  S
C1692      C1693   1.405   1_565  A
C1693      C1694   1.404       .  A
C1693      H1697   1.083       .  S
C1694      O1698   1.372       .  S
O1696      H1700   0.991       .  S
O1698      H1699   0.992       .  S
C1701      C1706   1.404       .  A
C1702      C1703   1.407       .  A
C1702      H1707   1.084       .  S
C1703      C1704   1.404       .  A
C1703      O1708   1.372       .  S
C1704      C1705   1.416   1_565  A
C1705      H1709   1.084       .  S
C1706      O1710   1.371       .  S
O1708      H1712   0.990       .  S
O1710      H1711   0.992       .  S
C1713      C1714   1.404   1_565  A
C1713      C1718   1.405       .  A
C1714      C1715   1.389       .  A
C1714      H1719   1.084       .  S
C1715      C1716   1.404       .  A
C1715      O1720   1.371       .  S
C1716      C1717   1.405   1_545  A
C1717      C1718   1.389       .  A
C1717      H1721   1.084       .  S
C1718      O1722   1.372       .  S
O1720      H1724   0.992       .  S
O1722      H1723   0.992       .  S
C1725      C1726   1.412   1_655  A
C1726      H1731   1.083       .  S
C1727      C1728   1.410       .  A
C1727      O1732   1.372       .  S
C1728      C1729   1.414       .  A
C1729      C1730   1.413       .  A
C1729      H1733   1.083       .  S
O1732      H1736   0.992       .  S
C1737      C1738   1.407       .  A
C1737      C1742   1.408       .  A
C1738      C1739   1.414       .  A
C1738      H1743   1.083       .  S
C1739      C1740   1.416       .  A
C1739      O1744   1.371       .  S
C1740      C1741   1.405       .  A
C1741      C1742   1.396       .  A
C1741      H1745   1.084       .  S
C1742      O1746   1.373       .  S
O1744      H1748   0.992       .  S
O1746      H1747   0.992       .  S
C1749      C1750   1.404       .  A
C1749      C1754   1.409       .  A
C1750      C1751   1.410       .  A
C1750      H1755   1.083       .  S
C1751      C1752   1.415       .  A
C1751      O1756   1.371       .  S
C1752      C1753   1.403       .  A
C1753      C1754   1.394       .  A
C1753      H1757   1.084       .  S
C1754      O1758   1.372       .  S
O1756      H1760   0.991       .  S
O1758      H1759   0.990       .  S
C1761      C1762   1.400   1_554  A
C1762      C1763   1.404       .  A
C1762      H1767   1.084       .  S
C1763      O1768   1.372       .  S
C1764      C1765   1.403       .  A
C1765      C1766   1.405       .  A
C1765      H1769   1.083       .  S
C1766      O1770   1.372       .  S
O1768      H1772   0.992       .  S
O1770      H1771   0.992       .  S
C1773      C1774   1.396   1_655  A
C1773      C1778   1.409       .  A
C1774      H1779   1.085       .  S
C1775      C1776   1.407   1_554  A
C1775      O1780   1.372       .  S
C1776      C1777   1.399       .  A
C1777      H1781   1.085       .  S
C1778      O1782   1.373       .  S
O1780      H1784   0.992       .  S
O1782      H1783   0.991       .  S
C1785      C1786   1.405       .  A
C1785      C1790   1.421       .  A
C1786      C1787   1.412       .  A
C1786      H1791   1.083       .  S
C1787      C1788   1.420       .  A
C1787      O1792   1.371       .  S
C1788      C1789   1.401       .  A
C1789      C1790   1.407       .  A
C1789      H1793   1.084       .  S
C1790      O1794   1.374       .  S
O1792      H1796   0.992       .  S
O1794      H1795   0.991       .  S
C1797      C1802   1.420   1_556  A
C1798      C1799   1.402       .  A
C1798      H1803   1.084       .  S
C1799      C1800   1.416       .  A
C1799      O1804   1.372       .  S
C1800      C1801   1.400       .  A
C1802      O1806   1.372       .  S
O1804      H1808   0.992       .  S
O1806      H1807   0.991       .  S
C1809      C1814   1.409       .  A
C1810      H1815   1.083       .  S
C1811      C1812   1.409       .  A
C1811      O1816   1.371       .  S
C1813      H1817   1.083       .  S
C1814      O1818   1.371       .  S
O1818      H1819   0.992       .  S
C1821      C1826   1.398       .  A
C1822      C1823   1.392       .  A
C1822      H1827   1.085       .  S
C1823      C1824   1.401   1_545  A
C1823      O1828   1.372       .  S
C1825      C1826   1.394       .  A
C1825      H1829   1.085       .  S
C1826      O1830   1.372       .  S
O1828      H1832   0.991   1_545  S
O1830      H1831   0.991   1_565  S
C1833      C1834   1.410       .  A
C1833      C1838   1.399       .  A
C1834      C1835   1.409       .  A
C1834      H1839   1.084       .  S
C1835      C1836   1.406       .  A
C1835      O1840   1.371       .  S
C1836      C1837   1.415       .  A
C1837      C1838   1.399       .  A
C1837      H1841   1.084   1_565  S
C1838      O1842   1.372       .  S
O1840      H1844   0.991       .  S
O1842      H1843   0.992       .  S
C1845      C1846   1.401       .  A
C1845      C1850   1.416   1_545  A
C1846      C1847   1.412       .  A
C1846      H1851   1.083       .  S
C1847      C1848   1.423       .  A
C1847      O1852   1.371       .  S
C1848      C1849   1.402   1_545  A
C1849      C1850   1.403       .  A
C1849      H1853   1.083       .  S
C1850      O1854   1.373       .  S
O1852      H1856   0.991       .  S
O1854      H1855   0.992       .  S
