geometry optimzed in LAMMPS
_audit_creation_date              2020-12-01 
_audit_creation_method            'lammps2cif' 
_symmetry_space_group_name_H-M    'P1' 
_symmetry_Int_Tables_number       1 
_symmetry_cell_setting            triclinic 
loop_ 
_symmetry_equiv_pos_as_xyz 
  x,y,z 
_cell_length_a                    29.49828167 
_cell_length_b                    43.099150024989065 
_cell_length_c                    35.95234590172779 
_cell_angle_alpha                 91.20067943287196 
_cell_angle_beta                  89.40843525446432 
_cell_angle_gamma                 89.79564850398842 
loop_ 
_atom_site_label 
_atom_site_type_symbol 
_atom_site_fract_x 
_atom_site_fract_y 
_atom_site_fract_z 
_atom_site_charge 
O1          O  0.00116732  0.09365077  0.00329063    -0.84100
O2          O  0.96148537  0.07169977  0.06484864    -0.81100
C3          C  0.96049968  0.09438669  0.08876859     0.99400
O4          O  0.92889055  0.11411145  0.08916107    -0.81200
O5          O  0.86369282  0.15377170  0.06320169    -0.83800
C6          C  0.89063806  0.17473598  0.05517958     1.03900
O7          O  0.92414979  0.16841843  0.03453316    -0.76600
O8          O  0.98033729  0.13957979  0.98374804    -0.76800
C9          C  0.01080257  0.12026123  0.99187803     1.03900
O10         O  0.92941761  0.07044117  0.95416417    -0.84100
O11         O  0.88621168  0.04578408  0.01462219    -0.81100
C12         C  0.86436481  0.04434057  0.04473211     0.99400
O13         O  0.87348479  0.06376205  0.06976422    -0.81200
O14         O  0.82125109  0.10580695  0.02808461    -0.83800
C15         C  0.81408353  0.12793379  0.00603218     1.03900
O16         O  0.84580895  0.14484942  0.99339815    -0.76600
O17         O  0.90303144  0.11733246  0.94417840    -0.76700
C18         C  0.91196209  0.09022174  0.93261507     1.03800
Cr19       Cr  0.94202581  0.07254476  0.00996893     1.93700
Cr20       Cr  0.87498850  0.10879738  0.05940439     1.93200
Cr21       Cr  0.91336502  0.14001883  0.99109488     1.39100
O22         O  0.91043968  0.10700253  0.01906828    -1.21800
O23         O  0.79246481  0.10818907  0.77518283    -0.84100
O24         O  0.80774304  0.07090216  0.71419513    -0.81100
C25         C  0.81548208  0.07545377  0.68008378     0.99400
O26         O  0.85314105  0.08568230  0.66893513    -0.81200
O27         O  0.87954539  0.14420031  0.68022083    -0.83800
C28         C  0.89924266  0.16794757  0.69185205     1.03900
O29         O  0.90428068  0.17118809  0.72631059    -0.76600
O30         O  0.81754121  0.15372409  0.75529146    -0.76800
C31         C  0.78570287  0.13663450  0.76679337     1.03900
O32         O  0.87521286  0.07965447  0.81005799    -0.84100
O33         O  0.88812366  0.04328964  0.74803602    -0.81100
C34         C  0.92328632  0.04242156  0.72746339     0.99400
O35         O  0.93308874  0.06456840  0.70671696    -0.81200
O36         O  0.96087823  0.12351678  0.71944135    -0.83800
C37         C  0.97190685  0.13053565  0.75288266     1.03900
O38         O  0.94288418  0.13358887  0.77877392    -0.76600
O39         O  0.86023192  0.12846729  0.81634881    -0.76700
C40         C  0.87197803  0.10345352  0.83074999     1.03800
Cr41       Cr  0.84336889  0.07770309  0.76034140     1.93700
Cr42       Cr  0.90437150  0.10461707  0.69729192     1.93200
Cr43       Cr  0.88036781  0.14370982  0.76681061     1.39100
O44         O  0.87608538  0.10799958  0.74109946    -1.21800
O45         O  0.52719717  0.16334643  0.03922716    -0.84100
O46         O  0.57665814  0.12783394  0.98792317    -0.81100
C47         C  0.60870240  0.11902203  0.96677309     0.99400
O48         O  0.63963138  0.13774365  0.95819997    -0.81200
O49         O  0.59663739  0.18792985  0.92934613    -0.83800
C50         C  0.57436974  0.21264503  0.92659784     1.03900
O51         O  0.57098664  0.23167904  0.95406467    -0.76600
O52         O  0.51405744  0.20079752  0.00069071    -0.76800
C53         C  0.50045626  0.17728050  0.01779244     1.03900
O54         O  0.61226750  0.17811177  0.07525657    -0.84100
O55         O  0.65769435  0.13938789  0.02921357    -0.81100
C56         C  0.69377317  0.15290819  0.01966950     0.99400
O57         O  0.69302763  0.17768575  0.00158045    -0.81200
O58         O  0.66128477  0.22895820  0.96522138    -0.83800
C59         C  0.66143091  0.24809407  0.99244030     1.03900
O60         O  0.63049461  0.24656709  0.01697742    -0.76600
O61         O  0.56995838  0.21918358  0.06594395    -0.76700
C62         C  0.59502311  0.20312153  0.08692851     1.03800
Cr63       Cr  0.59366879  0.15474370  0.03090866     1.93700
Cr64       Cr  0.64428138  0.18365014  0.96607154     1.93200
Cr65       Cr  0.57330099  0.22216458  0.00921323     1.39100
O66         O  0.60382732  0.18696304  0.00239088    -1.21800
O67         O  0.73203366  0.16145019  0.21703563    -0.84100
O68         O  0.69085191  0.12988024  0.27257819    -0.81100
C69         C  0.66579560  0.12256332  0.29934176     0.99400
O70         O  0.63889274  0.14249175  0.31340427    -0.81200
O71         O  0.69687583  0.19142111  0.33162972    -0.83800
C72         C  0.72083635  0.21552461  0.32936134     1.03900
O73         O  0.71340507  0.23506358  0.30418901    -0.76600
O74         O  0.75478351  0.20198024  0.24984923    -0.76800
C75         C  0.76360839  0.17672955  0.23304333     1.03900
O76         O  0.63986975  0.18063121  0.19256127    -0.84100
O77         O  0.60021067  0.14689615  0.24671465    -0.81100
C78         C  0.56930240  0.16336846  0.26273890     0.99400
O79         O  0.57901874  0.18616152  0.28346820    -0.81200
O80         O  0.62692886  0.23496873  0.31098668    -0.83800
C81         C  0.61589056  0.25150247  0.28384026     1.03900
O82         O  0.63833029  0.24897152  0.25374034    -0.76600
O83         O  0.68684841  0.21975053  0.19592273    -0.76700
C84         C  0.65726583  0.20422625  0.17838200     1.03800
Cr85       Cr  0.66593913  0.15713771  0.23403808     1.93700
Cr86       Cr  0.63801204  0.18897489  0.30710021     1.93200
Cr87       Cr  0.69601909  0.22424920  0.25147252     1.39100
O88         O  0.66639690  0.19009084  0.26366817    -1.21800
O89         O  0.26997943  0.08962650  0.24474620    -0.84100
O90         O  0.31172424  0.05734402  0.18985609    -0.81100
C91         C  0.30802669  0.07711183  0.16422660     0.99400
O92         O  0.33180466  0.10140626  0.16482734    -0.81200
O93         O  0.39290546  0.14736272  0.18768625    -0.83800
C94         C  0.36748375  0.16788310  0.20214639     1.03900
O95         O  0.34048144  0.16091334  0.22779715    -0.76600
O96         O  0.29422502  0.12829505  0.28021776    -0.76800
C97         C  0.26230492  0.11427846  0.26304074     1.03900
O98         O  0.33308447  0.06880121  0.30026780    -0.84100
O99         O  0.38356557  0.04060464  0.24242658    -0.81100
C100        C  0.40712662  0.03866264  0.21289370     0.99400
O101        O  0.39672939  0.05517674  0.18575525    -0.81200
O102        O  0.44784078  0.10093570  0.21693941    -0.83800
C103        C  0.45829982  0.12267969  0.23902437     1.03900
O104        O  0.42792228  0.13950132  0.25519626    -0.76600
O105        O  0.38334149  0.10563532  0.30631238    -0.76700
C106        C  0.36220291  0.08322369  0.31970352     1.03800
Cr107      Cr  0.32705732  0.06606646  0.24387522     1.93700
Cr108      Cr  0.38961309  0.10108118  0.19149720     1.93200
Cr109      Cr  0.36110848  0.13129242  0.26542535     1.39100
O110        O  0.35923978  0.09962582  0.23403405    -1.21800
O111        O  0.51316501  0.08758625  0.48906572    -0.84100
O112        O  0.46668353  0.05986687  0.54372752    -0.81100
C113        C  0.47395096  0.08023404  0.56893187     0.99400
O114        O  0.45354465  0.10594439  0.56865449    -0.81200
O115        O  0.40330179  0.15610998  0.54604859    -0.83800
C116        C  0.43229408  0.17337759  0.53125914     1.03900
O117        O  0.45629494  0.16323698  0.50452601    -0.76600
O118        O  0.49381850  0.12453658  0.45128544    -0.76800
C119        C  0.52376715  0.11070432  0.47007262     1.03900
O120        O  0.44631475  0.06874350  0.43376404    -0.84100
O121        O  0.39302141  0.04602062  0.49245288    -0.81100
C122        C  0.36958068  0.04684321  0.52220273     0.99400
O123        O  0.37975445  0.06564897  0.54813361    -0.81200
O124        O  0.33835923  0.11565965  0.51660870    -0.83800
C125        C  0.33277519  0.13784946  0.49471153     1.03900
O126        O  0.36607933  0.15008073  0.47795255    -0.76600
O127        O  0.40144151  0.10876453  0.42738118    -0.76700
C128        C  0.41882706  0.08414374  0.41437293     1.03800
Cr129      Cr  0.45267913  0.06786871  0.49003624     1.93700
Cr130      Cr  0.39630557  0.11016122  0.54192631     1.93200
Cr131      Cr  0.42931238  0.13434179  0.46736196     1.39100
O132        O  0.42567696  0.10410704  0.49932841    -1.21800
O133        O  0.25581918  0.16509215  0.70579065    -0.84100
O134        O  0.21854168  0.12618556  0.75737933    -0.81100
C135        C  0.19322443  0.11607130  0.78275617     0.99400
O136        O  0.16258718  0.13311675  0.79667254    -0.81200
O137        O  0.21131323  0.18249593  0.82285954    -0.83800
C138        C  0.23218692  0.20785823  0.82523920     1.03900
O139        O  0.22599615  0.22875371  0.80142059    -0.76600
O140        O  0.27379615  0.20216962  0.74541092    -0.76800
C141        C  0.28506849  0.17893891  0.72560542     1.03900
O142        O  0.16425182  0.17971594  0.68198665    -0.84100
O143        O  0.12929390  0.13862009  0.72871542    -0.81100
C144        C  0.09506502  0.15160313  0.74384575     0.99400
O145        O  0.09894029  0.17362815  0.76737640    -0.81200
O146        O  0.13855401  0.22337527  0.80402497    -0.83800
C147        C  0.12820164  0.24223536  0.77914431     1.03900
O148        O  0.15242184  0.24344519  0.74994217    -0.76600
O149        O  0.20601052  0.22113625  0.69087167    -0.76700
C150        C  0.17861630  0.20539071  0.67117430     1.03800
Cr151      Cr  0.19198307  0.15467081  0.72069337     1.93700
Cr152      Cr  0.15531741  0.17888476  0.79499728     1.93200
Cr153      Cr  0.21265287  0.22158043  0.74702266     1.39100
O154        O  0.18633464  0.18511358  0.75374991    -1.21800
O155        O  0.04304939  0.16327619  0.54187580    -0.84100
O156        O  0.08590729  0.12821105  0.48635275    -0.81100
C157        C  0.11314177  0.12058944  0.46048740     0.99400
O158        O  0.14196507  0.13987237  0.44885912    -0.81200
O159        O  0.09383392  0.19070334  0.42591394    -0.83800
C160        C  0.07192813  0.21576985  0.42598357     1.03900
O161        O  0.07228579  0.23374848  0.45446600    -0.76600
O162        O  0.02258606  0.19959437  0.50357092    -0.76800
C163        C  0.01254353  0.17697521  0.52358078     1.03900
O164        O  0.13289283  0.18017933  0.56881528    -0.84100
O165        O  0.17278682  0.14137169  0.51822087    -0.81100
C166        C  0.20682195  0.15575274  0.50566460     0.99400
O167        O  0.20197800  0.17998282  0.48704105    -0.81200
O168        O  0.16188229  0.23184620  0.45849901    -0.83800
C169        C  0.16509611  0.24890622  0.48757203     1.03900
O170        O  0.13715182  0.24596693  0.51391337    -0.76600
O171        O  0.08253176  0.21730746  0.56455668    -0.76700
C172        C  0.11278765  0.20338400  0.58281662     1.03800
Cr173      Cr  0.10854414  0.15562698  0.52693771     1.93700
Cr174      Cr  0.14703959  0.18596214  0.45766167     1.93200
Cr175      Cr  0.08067927  0.22191074  0.50838738     1.39100
O176        O  0.11210588  0.18773197  0.49770970    -1.21800
O177        O  0.74595130  0.41435288  0.70901792    -0.84100
O178        O  0.70244175  0.37881029  0.75974586    -0.81100
C179        C  0.67575406  0.37046531  0.78498445     0.99400
O180        O  0.65073442  0.39016598  0.80148589    -0.81200
O181        O  0.71051210  0.43579758  0.82665800    -0.83800
C182        C  0.73534059  0.45961402  0.82772452     1.03900
O183        O  0.73003676  0.48089381  0.80436451    -0.76600
O184        O  0.77178572  0.44930602  0.74858047    -0.76800
C185        C  0.77801812  0.42519812  0.72871818     1.03900
O186        O  0.65712997  0.43801156  0.68640649    -0.84100
O187        O  0.61489146  0.39977802  0.73492456    -0.81100
C188        C  0.58412147  0.41483029  0.75264079     0.99400
O189        O  0.59373319  0.43652915  0.77522785    -0.81200
O190        O  0.64413939  0.48224765  0.80895085    -0.83800
C191        C  0.63066542  0.99756704  0.78627378     1.03900
O192        O  0.65679159  0.99854747  0.75814553    -0.76600
O193        O  0.70918387  0.47345221  0.69455488    -0.76700
C194        C  0.67925950  0.46065970  0.67454419     1.03800
Cr195      Cr  0.68039687  0.40998743  0.72459927     1.93700
Cr196      Cr  0.65237425  0.43658697  0.80047673     1.93200
Cr197      Cr  0.71487583  0.47399896  0.75052660     1.39100
O198        O  0.68222874  0.44017367  0.75810584    -1.21800
O199        O  0.56240443  0.41811094  0.54930817    -0.84100
O200        O  0.60107386  0.38091798  0.49445238    -0.81100
C201        C  0.62538393  0.37264308  0.46699469     0.99400
O202        O  0.65124461  0.39156655  0.45103000    -0.81200
O203        O  0.59831628  0.43794694  0.42539163    -0.83800
C204        C  0.57415000  0.46181804  0.42346918     1.03900
O205        O  0.57226836  0.48101800  0.45069428    -0.76600
O206        O  0.53135731  0.44589956  0.50632214    -0.76800
C207        C  0.52823159  0.42490696  0.53027814     1.03900
O208        O  0.65111457  0.44156393  0.56612708    -0.84100
O209        O  0.68878935  0.39899825  0.51795228    -0.81100
C210        C  0.72051882  0.41190545  0.50050420     0.99400
O211        O  0.71299702  0.43484932  0.48015679    -0.81200
O212        O  0.66496281  0.48367462  0.45054101    -0.83800
C213        C  0.65818059  0.01307694  0.48924946     1.03900
O214        O  0.63060275  0.00889185  0.51572725    -0.76600
O215        O  0.59339124  0.47335856  0.56154121    -0.76700
C216        C  0.62629964  0.46262058  0.58005736     1.03800
Cr217      Cr  0.62552849  0.41210526  0.52971921     1.93700
Cr218      Cr  0.65412646  0.43768074  0.45464628     1.93200
Cr219      Cr  0.58611102  0.47354414  0.50504407     1.39100
O220        O  0.62250189  0.44128162  0.49649342    -1.21800
O221        O  0.51603831  0.32710469  0.98415412    -0.84100
O222        O  0.47118085  0.30175077  0.04066978    -0.81100
C223        C  0.47688020  0.32378537  0.06424098     0.99400
O224        O  0.45505307  0.34878250  0.06150783    -0.81200
O225        O  0.39895697  0.39474493  0.03601980    -0.83800
C226        C  0.42607143  0.41279905  0.02064875     1.03900
O227        O  0.45301496  0.40276358  0.99600149    -0.76600
O228        O  0.49639748  0.36412373  0.94634948    -0.76800
C229        C  0.52630306  0.35039235  0.96536276     1.03900
O230        O  0.45133847  0.30462982  0.92950684    -0.84100
O231        O  0.39753079  0.28312477  0.99015913    -0.81100
C232        C  0.37504878  0.28482841  0.02044756     0.99400
O233        O  0.38593308  0.30456295  0.04495281    -0.81200
O234        O  0.33872355  0.35135306  0.00991060    -0.83800
C235        C  0.33223455  0.37214262  0.98618165     1.03900
O236        O  0.36485380  0.38400998  0.96795648    -0.76600
O237        O  0.40681316  0.34423287  0.91952730    -0.76700
C238        C  0.42614618  0.31987967  0.90793553     1.03800
Cr239      Cr  0.45651497  0.30631317  0.98615432     1.93700
Cr240      Cr  0.39738265  0.34903727  0.03516011     1.93200
Cr241      Cr  0.43022116  0.37148742  0.95967923     1.39100
O242        O  0.42746042  0.34217865  0.99293304    -1.21800
O243        O  0.28393626  0.34490452  0.74140637    -0.84100
O244        O  0.31924399  0.31501892  0.67904888    -0.81100
C245        C  0.31846902  0.33675690  0.65554140     0.99400
O246        O  0.34826194  0.35761944  0.65619725    -0.81200
O247        O  0.40822401  0.39986417  0.68788532    -0.83800
C248        C  0.38444790  0.41899438  0.70693822     1.03900
O249        O  0.36064092  0.41003451  0.73392766    -0.76600
O250        O  0.31909182  0.37203997  0.78455869    -0.76800
C251        C  0.28296849  0.36481262  0.76768892     1.03900
O252        O  0.34704892  0.31350003  0.78950329    -0.84100
O253        O  0.38943901  0.28784333  0.72653055    -0.81100
C254        C  0.41442660  0.28756179  0.69778063     0.99400
O255        O  0.40856367  0.30765348  0.67321632    -0.81200
O256        O  0.46398390  0.34924163  0.70919281    -0.83800
C257        C  0.47620416  0.36995055  0.73206360     1.03900
O258        O  0.44722455  0.38500527  0.75143548    -0.76600
O259        O  0.40638319  0.34303551  0.79734860    -0.76700
C260        C  0.37999377  0.32264248  0.80947104     1.03800
Cr261      Cr  0.33756267  0.31710534  0.73342169     1.93700
Cr262      Cr  0.40483055  0.35317807  0.68458060     1.93200
Cr263      Cr  0.38266702  0.37548765  0.76423114     1.39100
O264        O  0.37464278  0.34882903  0.72726216    -1.21800
O265        O  0.05530039  0.39633321  0.01436910    -0.84100
O266        O  0.13344779  0.37274648  0.98244083    -0.81100
C267        C  0.13056483  0.37040487  0.94745103     0.99400
O268        O  0.12500048  0.39412929  0.92786726    -0.81200
O269        O  0.11232224  0.45747914  0.91321530    -0.83800
C270        C  0.06999501  0.45485485  0.91347335     1.03900
O271        O  0.04879100  0.45692530  0.94405709    -0.76600
O272        O  0.02886658  0.44414859  0.01634700    -0.76800
C273        C  0.02280691  0.41519901  0.01862434     1.03900
O274        O  0.10768788  0.43343415  0.06365857    -0.84100
O275        O  0.18627987  0.41262047  0.02801311    -0.81100
C276        C  0.21405234  0.40646552  0.00191649     0.99400
O277        O  0.20261745  0.40979255  0.96859804    -0.81200
O278        O  0.18444154  0.47150720  0.96150216    -0.83800
C279        C  0.15676791  0.99376363  0.96334451     1.03900
O280        O  0.11372792  0.99527685  0.96672026    -0.76600
O281        O  0.10568577  0.48070718  0.04187012    -0.76700
C282        C  0.11015945  0.46237069  0.06867043     1.03800
Cr283      Cr  0.12021719  0.40637027  0.01948894     1.93700
Cr284      Cr  0.15290402  0.43363879  0.94592489     1.93200
Cr285      Cr  0.07940379  0.46809582  0.99237598     1.39100
O286        O  0.11746073  0.43608504  0.98629694    -1.21800
O287        O  0.23960246  0.42089175  0.19433985    -0.84100
O288        O  0.19840383  0.38393188  0.24492355    -0.81100
C289        C  0.17320147  0.37526182  0.27100749     0.99400
O290        O  0.14560626  0.39391266  0.28625675    -0.81200
O291        O  0.20065523  0.44068327  0.31191796    -0.83800
C292        C  0.22146375  0.46602131  0.31515192     1.03900
O293        O  0.21734055  0.48662220  0.29065897    -0.76600
O294        O  0.26185840  0.45720409  0.23384615    -0.76800
C295        C  0.27062261  0.43353638  0.21379183     1.03900
O296        O  0.14878053  0.44152884  0.17132250    -0.84100
O297        O  0.10867788  0.40154937  0.21995520    -0.81100
C298        C  0.07691421  0.41588705  0.23752325     0.99400
O299        O  0.08528833  0.43821770  0.25946032    -0.81200
O300        O  0.13165364  0.48486652  0.29457950    -0.83800
C301        C  0.12384269  0.01054412  0.26220801     1.03900
O302        O  0.14944996  0.00805306  0.23379233    -0.76600
O303        O  0.19687620  0.47950824  0.18009029    -0.76700
C304        C  0.16777559  0.46573589  0.16005834     1.03800
Cr305      Cr  0.17394992  0.41427160  0.20966231     1.93700
Cr306      Cr  0.14330380  0.43986031  0.28527245     1.93200
Cr307      Cr  0.20307078  0.47961035  0.23622909     1.39100
O308        O  0.17330610  0.44453837  0.24324847    -1.21800
O309        O  0.77588192  0.34602155  0.24186164    -0.84100
O310        O  0.80943385  0.30676813  0.18680387    -0.81100
C311        C  0.81063339  0.32506656  0.15955064     0.99400
O312        O  0.84324496  0.34342271  0.15563211    -0.81200
O313        O  0.90144126  0.38921986  0.17803326    -0.83800
C314        C  0.87667188  0.41052096  0.19243119     1.03900
O315        O  0.85301127  0.40569594  0.22103179    -0.76600
O316        O  0.81179742  0.37721317  0.28001532    -0.76800
C317        C  0.77516294  0.36872376  0.26467262     1.03900
O318        O  0.83909815  0.31980109  0.29547753    -0.84100
O319        O  0.87730370  0.28439452  0.23966828    -0.81100
C320        C  0.90554620  0.27951005  0.21364053     0.99400
O321        O  0.90439500  0.29606590  0.18483260    -0.81200
O322        O  0.95783055  0.34279209  0.21079946    -0.83800
C323        C  0.96980579  0.36708013  0.22779859     1.03900
O324        O  0.94036833  0.38466506  0.24327066    -0.76600
O325        O  0.89948761  0.34930256  0.29677434    -0.76700
C326        C  0.87443041  0.32954748  0.31193512     1.03800
Cr327      Cr  0.82811951  0.31602934  0.23980235     1.93700
Cr328      Cr  0.89904802  0.34274260  0.18518686     1.93200
Cr329      Cr  0.87553640  0.37682787  0.25826094     1.39100
O330        O  0.86745809  0.34517048  0.22756048    -1.21800
O331        O  0.01854653  0.33223407  0.48786579    -0.84100
O332        O  0.96553517  0.29990921  0.53560698    -0.81100
C333        C  0.96399354  0.31899458  0.56294723     0.99400
O334        O  0.94106790  0.34353432  0.56122341    -0.81200
O335        O  0.89545134  0.39336808  0.53418588    -0.83800
C336        C  0.92562491  0.41195250  0.52369729     1.03900
O337        O  0.95577784  0.40318425  0.50083843    -0.76600
O338        O  0.00186802  0.36796322  0.44816035    -0.76800
C339        C  0.03013759  0.35570441  0.46979509     1.03900
O340        O  0.96083828  0.31254082  0.42442194    -0.84100
O341        O  0.90356298  0.28423848  0.47578235    -0.81100
C342        C  0.87475467  0.28217151  0.50196845     0.99400
O343        O  0.87485358  0.30199481  0.52852359    -0.81200
O344        O  0.83801935  0.35370786  0.49446346    -0.83800
C345        C  0.83596706  0.37833041  0.47597396     1.03900
O346        O  0.87150238  0.39119573  0.46390211    -0.76600
O347        O  0.91442065  0.35168444  0.41656553    -0.76700
C348        C  0.93356048  0.32753541  0.40420361     1.03800
Cr349      Cr  0.96002365  0.30958603  0.48109057     1.93700
Cr350      Cr  0.89045588  0.34751168  0.52697700     1.93200
Cr351      Cr  0.93570517  0.37602084  0.45930790     1.39100
O352        O  0.92824024  0.34418413  0.48873804    -1.21800
O353        O  0.77765022  0.07183251  0.50672131    -0.84100
O354        O  0.81452301  0.10149339  0.56765257    -0.81100
C355        C  0.81364723  0.07975293  0.59117462     0.99400
O356        O  0.84243795  0.05811184  0.58940537    -0.81200
O357        O  0.90211354  0.01514111  0.55682621    -0.83800
C358        C  0.87735837  0.99631676  0.53880500     1.03900
O359        O  0.85298526  0.00566424  0.51280278    -0.76600
O360        O  0.81070308  0.04305281  0.46313000    -0.76800
C361        C  0.77532734  0.05132678  0.48111886     1.03900
O362        O  0.83979922  0.10187760  0.45618421    -0.84100
O363        O  0.88515078  0.12742027  0.51824907    -0.81100
C364        C  0.90964638  0.12727919  0.54696626     0.99400
O365        O  0.90246147  0.10738064  0.57153297    -0.81200
O366        O  0.95727184  0.06571999  0.53398926    -0.83800
C367        C  0.96915716  0.04478109  0.51109349     1.03900
O368        O  0.93997349  0.02986171  0.49230357    -0.76600
O369        O  0.89778486  0.07107391  0.44614363    -0.76700
C370        C  0.87102943  0.09144512  0.43457766     1.03800
Cr371      Cr  0.83196482  0.09894057  0.51275219     1.93700
Cr372      Cr  0.89867093  0.06198065  0.56001506     1.93200
Cr373      Cr  0.87491807  0.03948484  0.48118589     1.39100
O374        O  0.86820078  0.06662722  0.51801575    -1.21800
O375        O  0.00542049  0.07297069  0.26024675    -0.84100
O376        O  0.96941398  0.09964682  0.19903306    -0.81100
C377        C  0.97122451  0.07594669  0.17692947     0.99400
O378        O  0.94448876  0.05382606  0.18119779    -0.81200
O379        O  0.88150520  0.01496633  0.20822048    -0.83800
C380        C  0.90943289  0.99691875  0.22285718     1.03900
O381        O  0.93210129  0.00593684  0.25036538    -0.76600
O382        O  0.97361894  0.04296947  0.30166296    -0.76800
C383        C  0.00844405  0.05126476  0.28328998     1.10300
O384        O  0.94103447  0.10367361  0.31081952    -0.84100
O385        O  0.89514161  0.12756385  0.24777070    -0.81100
C386        C  0.87229707  0.12573682  0.21800798     0.99400
O387        O  0.88421500  0.10575287  0.19380933    -0.81200
O388        O  0.82777403  0.06698345  0.23059196    -0.83800
C389        C  0.81483763  0.04659296  0.25258591     1.03900
O390        O  0.84316419  0.03095032  0.27122656    -0.76600
O391        O  0.88572084  0.07090830  0.32039162    -0.76700
C392        C  0.91095469  0.09231040  0.33231329     1.03800
Cr393      Cr  0.95028500  0.09955675  0.25418336     1.93700
Cr394      Cr  0.88657944  0.06096951  0.20622825     1.93200
Cr395      Cr  0.90892690  0.03958623  0.28372248     1.39100
O396        O  0.91520609  0.06679238  0.24858473    -1.21800
O397        O  0.07584721  0.51292971  0.70773288    -0.84100
O398        O  0.14881977  0.03783492  0.75041563    -0.81100
C399        C  0.14442682  0.03924768  0.78531287     0.99400
O400        O  0.13433103  0.01543219  0.80325249    -0.81200
O401        O  0.11511876  0.44911316  0.81555820    -0.83800
C402        C  0.07340475  0.45401615  0.81429340     1.03900
O403        O  0.05457268  0.45355134  0.78309303    -0.76600
O404        O  0.03956104  0.46849739  0.71144637    -0.76800
C405        C  0.03974693  0.49752438  0.70587658     1.03900
O406        O  0.13157091  0.47200615  0.66453138    -0.84100
O407        O  0.19679237  0.99749086  0.70188601    -0.81100
C408        C  0.22881913  0.49637367  0.73363482     0.99400
O409        O  0.21241186  0.49482585  0.76589709    -0.81200
O410        O  0.19016172  0.43412036  0.77093194    -0.83800
C411        C  0.17108729  0.40872372  0.76336478     1.03900
O412        O  0.12842787  0.40757906  0.75705179    -0.76600
O413        O  0.11263934  0.42641513  0.68604055    -0.76700
C414        C  0.12629855  0.44329818  0.65989787     1.03800
Cr415      Cr  0.13920078  0.49901177  0.70871059     1.93700
Cr416      Cr  0.15906299  0.47229342  0.78485065     1.93200
Cr417      Cr  0.08688696  0.44097508  0.73534633     1.39100
O418        O  0.12817076  0.47061163  0.74236888    -1.21800
O419        O  0.25060663  0.49478630  0.53576820    -0.84100
O420        O  0.19230341  0.03384939  0.47646162    -0.81100
C421        C  0.16366549  0.04131045  0.45254366     0.99400
O422        O  0.13654936  0.02123639  0.43969509    -0.81200
O423        O  0.20219580  0.48100079  0.41870656    -0.83800
C424        C  0.22429574  0.45635323  0.41264534     1.03900
O425        O  0.22273735  0.43457669  0.43571309    -0.76600
O426        O  0.27128392  0.46254013  0.49080893    -0.76800
C427        C  0.28024681  0.48521877  0.51235839     1.03900
O428        O  0.16321945  0.47156473  0.56263899    -0.84100
O429        O  0.10761032  0.01333528  0.50789406    -0.81100
C430        C  0.08637604  0.50338517  0.50522367     0.99400
O431        O  0.09177157  0.48219682  0.48066049    -0.81200
O432        O  0.13511631  0.43596797  0.43882823    -0.83800
C433        C  0.12939211  0.41453462  0.46175697     1.03900
O434        O  0.15560955  0.41281575  0.48949844    -0.76600
O435        O  0.21198461  0.43506618  0.54701409    -0.76700
C436        C  0.18360245  0.44679472  0.56993115     1.03800
Cr437      Cr  0.18440698  0.50185909  0.52581979     1.93700
Cr438      Cr  0.14763804  0.48063668  0.45039564     1.93200
Cr439      Cr  0.21315044  0.43859102  0.49104074     1.39100
O440        O  0.18138904  0.47370932  0.48949143    -1.21800
O441        O  0.72543012  0.49193313  0.03662145    -0.84100
O442        O  0.69048512  0.03382449  0.99739972    -0.81100
C443        C  0.66259549  0.04080659  0.97254691     0.99400
O444        O  0.63460389  0.02100518  0.96062524    -0.81200
O445        O  0.70656149  0.47031365  0.91535289    -0.83800
C446        C  0.73292369  0.44718426  0.91556501     1.03900
O447        O  0.72731811  0.42604553  0.93909677    -0.76600
O448        O  0.76023050  0.45933624  0.99821760    -0.76800
C449        C  0.76143746  0.48258989  0.02033283     1.03900
O450        O  0.63631550  0.46602358  0.05165585    -0.84100
O451        O  0.60528546  0.01953463  0.03117377    -0.81100
C452        C  0.57118624  0.48872751  0.98054655     0.99400
O453        O  0.58393699  0.46680556  0.95903073    -0.81200
O454        O  0.64196665  0.42233704  0.92874059    -0.83800
C455        C  0.63009802  0.40374764  0.95352145     1.03900
O456        O  0.65070793  0.40440310  0.98442194    -0.76600
O457        O  0.69222485  0.43267075  0.04703679    -0.76700
C458        C  0.65954941  0.44471732  0.06540697     1.03800
Cr459      Cr  0.66274626  0.49487286  0.01540036     1.93700
Cr460      Cr  0.64577542  0.46794790  0.93778001     1.93200
Cr461      Cr  0.70510593  0.43243577  0.99168824     1.39100
O462        O  0.67089905  0.46510030  0.98195451    -1.21800
O463        O  0.55658082  0.49959980  0.19828671    -0.84100
O464        O  0.59027212  0.03571724  0.27480805    -0.81100
C465        C  0.61881138  0.04242526  0.29944591     0.99400
O466        O  0.64701056  0.02204419  0.30973253    -0.81200
O467        O  0.59672375  0.47542532  0.31870905    -0.83800
C468        C  0.56969969  0.45325666  0.32221388     1.03900
O469        O  0.56371483  0.43419223  0.29520789    -0.76600
O470        O  0.52373322  0.47228304  0.24165821    -0.76800
C471        C  0.52204211  0.49390514  0.21820029     1.03900
O472        O  0.63961705  0.46852196  0.17511059    -0.84100
O473        O  0.67582606  0.01695573  0.24181095    -0.81100
C474        C  0.71746438  0.48861705  0.23768422     0.99400
O475        O  0.70562047  0.46600017  0.25655786    -0.81200
O476        O  0.65303046  0.42409326  0.28984362    -0.83800
C477        C  0.65436491  0.40597010  0.26159930     1.03900
O478        O  0.62462846  0.40889378  0.23670027    -0.76600
O479        O  0.57773584  0.44139887  0.18316697    -0.76700
C480        C  0.61063069  0.44979286  0.16261379     1.03800
Cr481      Cr  0.62191319  0.49936862  0.21379439     1.93700
Cr482      Cr  0.65016594  0.47055525  0.28635727     1.93200
Cr483      Cr  0.57476897  0.44085344  0.23984680     1.39100
O484        O  0.61550199  0.47031112  0.24669412    -1.21800
O485        O  0.26476125  0.06700734  0.98064184    -0.84100
O486        O  0.30069802  0.10140688  0.04091164    -0.81100
C487        C  0.29839747  0.08168472  0.06647087     0.99400
O488        O  0.31956889  0.05651382  0.06299279    -0.81200
O489        O  0.37552904  0.01038081  0.03916069    -0.83800
C490        C  0.35024406  0.99245958  0.02079817     1.03900
O491        O  0.33148810  0.00123241  0.99146004    -0.76600
O492        O  0.30055392  0.04017521  0.93757584    -0.76800
C493        C  0.26469741  0.04534691  0.95608069     1.03900
O494        O  0.33409686  0.09527376  0.93167093    -0.84100
O495        O  0.37523371  0.12231808  0.99477057    -0.81100
C496        C  0.39785639  0.12186512  0.02475398     0.99400
O497        O  0.38969854  0.10140850  0.04857233    -0.81200
O498        O  0.44171033  0.05340863  0.01810730    -0.83800
C499        C  0.45177289  0.03137910  0.99574259     1.03900
O500        O  0.42219425  0.01893835  0.97531788    -0.76600
O501        O  0.39128367  0.06273157  0.92740798    -0.76700
C502        C  0.36855698  0.08456168  0.91405599     1.03800
Cr503      Cr  0.32055428  0.09448938  0.98731909     1.93700
Cr504      Cr  0.37957313  0.05614406  0.03915688     1.93200
Cr505      Cr  0.36093477  0.03281778  0.96027281     1.39100
O506        O  0.35453795  0.06136233  0.99544198    -1.21800
O507        O  0.52570948  0.07780035  0.74774806    -0.84100
O508        O  0.48177687  0.10627767  0.69146744    -0.81100
C509        C  0.48615598  0.08557979  0.66602341     0.99400
O510        O  0.46738596  0.05967212  0.66944939    -0.81200
O511        O  0.41389923  0.01223421  0.69371384    -0.83800
C512        C  0.44099300  0.99442999  0.70954312     1.03900
O513        O  0.46565836  0.00448879  0.73530611    -0.76600
O514        O  0.50223889  0.04357095  0.78776611    -0.76800
C515        C  0.53392795  0.05537935  0.76864733     1.03900
O516        O  0.45852100  0.10033942  0.80218853    -0.84100
O517        O  0.40818003  0.12389386  0.74234001    -0.81100
C518        C  0.38561188  0.12284983  0.71246540     0.99400
O519        O  0.39528892  0.10278771  0.68754616    -0.81200
O520        O  0.34966121  0.05444132  0.72014251    -0.83800
C521        C  0.34295277  0.03308416  0.74306404     1.03900
O522        O  0.37519810  0.02083322  0.76064999    -0.76600
O523        O  0.41041094  0.06228558  0.80913272    -0.76700
C524        C  0.42942531  0.08618436  0.82177546     1.03800
Cr525      Cr  0.46650046  0.09986832  0.74576979     1.93700
Cr526      Cr  0.40908382  0.05803312  0.69553804     1.93200
Cr527      Cr  0.43850184  0.03499093  0.77100536     1.39100
O528        O  0.43734114  0.06442933  0.73795502    -1.21800
O529        O  0.24240638  0.24645463  0.02976115    -0.84100
O530        O  0.20141147  0.28311867  0.97887144    -0.81100
C531        C  0.17645198  0.29193094  0.95295455     0.99400
O532        O  0.14737399  0.27376266  0.93946853    -0.81200
O533        O  0.19959283  0.22389737  0.91579538    -0.83800
C534        C  0.22250984  0.19916561  0.91574262     1.03900
O535        O  0.21395831  0.17847009  0.93932612    -0.76600
O536        O  0.26128959  0.20785990  0.99168976    -0.76800
C537        C  0.27192768  0.23178231  0.01007015     1.03900
O538        O  0.15217984  0.23006452  0.05846766    -0.84100
O539        O  0.11232082  0.26955508  0.00880257    -0.81100
C540        C  0.07936993  0.25574534  0.99307152     0.99400
O541        O  0.08568603  0.23264843  0.97156276    -0.81200
O542        O  0.12822634  0.18258998  0.93873339    -0.83800
C543        C  0.11704408  0.16612181  0.96591881     1.03900
O544        O  0.14197686  0.16590052  0.99431977    -0.76600
O545        O  0.19837894  0.19067769  0.04945205    -0.76700
C546        C  0.17183642  0.20633647  0.07041719     1.03800
Cr547      Cr  0.17690004  0.25498686  0.01705313     1.93700
Cr548      Cr  0.14267790  0.22768636  0.94393510     1.93200
Cr549      Cr  0.20153671  0.18786346  0.99341228     1.39100
O550        O  0.17341202  0.22360965  0.98532231    -1.21800
O551        O  0.06112277  0.25088820  0.19698775    -0.84100
O552        O  0.09994021  0.28781723  0.25066893    -0.81100
C553        C  0.12372342  0.29672581  0.27758644     0.99400
O554        O  0.14770596  0.27772153  0.29487544    -0.81200
O555        O  0.08417924  0.23639377  0.32024819    -0.83800
C556        C  0.06179543  0.21197949  0.32463008     1.03900
O557        O  0.06149936  0.19112525  0.29889413    -0.76600
O558        O  0.02563169  0.22136402  0.23704586    -0.76800
C559        C  0.02465689  0.24200737  0.21232297     1.03900
O560        O  0.14914438  0.22312748  0.18262570    -0.84100
O561        O  0.18826331  0.26310393  0.23179305    -0.81100
C562        C  0.21648691  0.24749544  0.25022812     0.99400
O563        O  0.20345302  0.22719785  0.27239566    -0.81200
O564        O  0.14672866  0.18639839  0.30547570    -0.83800
C565        C  0.15758167  0.16689388  0.28041487     1.03900
O566        O  0.13502029  0.16615671  0.25046945    -0.76600
O567        O  0.09144496  0.19180586  0.18799839    -0.76700
C568        C  0.12375348  0.20278853  0.16869109     1.03800
Cr569      Cr  0.12395378  0.25430023  0.21781898     1.93700
Cr570      Cr  0.14319928  0.23156341  0.29544156     1.93200
Cr571      Cr  0.08055149  0.19430999  0.24424342     1.39100
O572        O  0.11573569  0.22679887  0.25227571    -1.21800
O573        O  0.77633113  0.31598533  0.99717746    -0.84100
O574        O  0.80831932  0.35950420  0.04680424    -0.81100
C575        C  0.81047733  0.34223925  0.07508449     0.99400
O576        O  0.84443527  0.32501281  0.07962887    -0.81200
O577        O  0.91244494  0.28366214  0.06061063    -0.83800
C578        C  0.89139996  0.25981939  0.05003548     1.03900
O579        O  0.86326109  0.26108590  0.02391392    -0.76600
O580        O  0.81409477  0.28122178  0.96398445    -0.76800
C581        C  0.77726461  0.29055138  0.97897076     1.03900
O582        O  0.83503092  0.33952930  0.93788359    -0.84100
O583        O  0.87410138  0.38034253  0.98918988    -0.81100
C584        C  0.90010009  0.38737927  0.01575478     0.99400
O585        O  0.89524098  0.37374981  0.04620162    -0.81200
O586        O  0.95857451  0.32955675  0.02150630    -0.83800
C587        C  0.97240483  0.30491052  0.00546537     1.03900
O588        O  0.94445648  0.28532419  0.99252222    -0.76600
O589        O  0.89628770  0.31066635  0.93678609    -0.76700
C590        C  0.86876710  0.32773266  0.92022236     1.03800
Cr591      Cr  0.82633191  0.34748390  0.99382380     1.93700
Cr592      Cr  0.90004273  0.32789156  0.04917960     1.93200
Cr593      Cr  0.87856013  0.28703364  0.98109292     1.39100
O594        O  0.86834094  0.32076954  0.00787405    -1.21800
O595        O  0.01283030  0.31664836  0.74337780    -0.84100
O596        O  0.96389444  0.34467999  0.68975956    -0.81100
C597        C  0.96601588  0.32446405  0.66351499     0.99400
O598        O  0.94649440  0.29879208  0.66668345    -0.81200
O599        O  0.89881966  0.24989271  0.69390558    -0.83800
C600        C  0.93422384  0.23523235  0.70158015     1.03900
O601        O  0.95694127  0.24322482  0.72965574    -0.76600
O602        O  0.99434860  0.28110829  0.78337924    -0.76800
C603        C  0.02393557  0.29427493  0.76338114     1.03900
O604        O  0.94790431  0.33702203  0.80133488    -0.84100
O605        O  0.89397700  0.36159224  0.74460346    -0.81100
C606        C  0.86912436  0.36099912  0.71601673     0.99400
O607        O  0.87570035  0.34048065  0.69100214    -0.81200
O608        O  0.83682746  0.29184820  0.72723133    -0.83800
C609        C  0.83251916  0.26838153  0.74724788     1.03900
O610        O  0.86674587  0.25522359  0.76119299    -0.76600
O611        O  0.90382812  0.29679495  0.81058824    -0.76700
C612        C  0.92145062  0.32170952  0.82225983     1.03800
Cr613      Cr  0.95272442  0.33765874  0.74471545     1.93700
Cr614      Cr  0.89193917  0.29589442  0.69758655     1.93200
Cr615      Cr  0.93007104  0.27122031  0.76918991     1.39100
O616        O  0.92446343  0.30185364  0.73776498    -1.21800
O617        O  0.54457445  0.24625664  0.70266979    -0.84100
O618        O  0.59193290  0.28431908  0.75192754    -0.81100
C619        C  0.62030588  0.29262694  0.77615605     0.99400
O620        O  0.64786842  0.27324322  0.78893266    -0.81200
O621        O  0.59535601  0.22841902  0.81980597    -0.83800
C622        C  0.57256399  0.20429304  0.82465023     1.03900
O623        O  0.57011131  0.18367291  0.79886619    -0.76600
O624        O  0.52192508  0.21427057  0.74580238    -0.76800
C625        C  0.51335088  0.23526912  0.72303904     1.03900
O626        O  0.63143025  0.22272919  0.67538428    -0.84100
O627        O  0.67615981  0.26369531  0.71950564    -0.81100
C628        C  0.70895841  0.24921759  0.73357908     0.99400
O629        O  0.70236483  0.22689328  0.75494058    -0.81200
O630        O  0.65816720  0.18137192  0.79218296    -0.83800
C631        C  0.66171809  0.16197618  0.76539235     1.03900
O632        O  0.63281412  0.16206455  0.73982836    -0.76600
O633        O  0.57874794  0.18832600  0.68635694    -0.76700
C634        C  0.60824028  0.19992302  0.66476211     1.03800
Cr635      Cr  0.61074587  0.25205441  0.71455300     1.93700
Cr636      Cr  0.64805286  0.22698613  0.78647625     1.93200
Cr637      Cr  0.57812670  0.18920847  0.74306782     1.39100
O638        O  0.61224285  0.22283857  0.74787872    -1.21800
O639        O  0.73244549  0.24326352  0.54506703    -0.84100
O640        O  0.69665128  0.28370139  0.49534070    -0.81100
C641        C  0.67449158  0.29364091  0.46835188     0.99400
O642        O  0.64956099  0.27582984  0.44957537    -0.81200
O643        O  0.70662719  0.23054637  0.42265269    -0.83800
C644        C  0.72976808  0.20609221  0.41915030     1.03900
O645        O  0.72413419  0.18419248  0.44164915    -0.76600
O646        O  0.76246685  0.21388604  0.50104862    -0.76800
C647        C  0.76626937  0.23569898  0.52486902     1.03900
O648        O  0.64109051  0.22071412  0.55946973    -0.84100
O649        O  0.60680238  0.26411432  0.51434444    -0.81100
C650        C  0.57655220  0.25204402  0.49411161     0.99400
O651        O  0.58582419  0.23169449  0.46938977    -0.81200
O652        O  0.63667917  0.18509198  0.43508873    -0.83800
C653        C  0.62656745  0.16479461  0.45857719     1.03900
O654        O  0.64930377  0.16302557  0.48832025    -0.76600
O655        O  0.69519400  0.18638729  0.55134356    -0.76700
C656        C  0.66284113  0.19775825  0.57084417     1.03800
Cr657      Cr  0.66964290  0.25090821  0.52617385     1.93700
Cr658      Cr  0.64695774  0.22999073  0.44697893     1.93200
Cr659      Cr  0.70558644  0.18883600  0.49548748     1.39100
O660        O  0.67332505  0.22314965  0.48984481    -1.21800
O661        O  0.28251752  0.32228360  0.46525811    -0.84100
O662        O  0.30081993  0.35053852  0.53266763    -0.81100
C663        C  0.31250804  0.34509207  0.56571417     0.99400
O664        O  0.35182471  0.33543896  0.57291902    -0.81200
O665        O  0.37316981  0.27506209  0.55564398    -0.83800
C666        C  0.38406716  0.25116311  0.53706861     1.03900
O667        O  0.38823557  0.25249605  0.50245783    -0.76600
O668        O  0.30488192  0.27488916  0.47914885    -0.76800
C669        C  0.27393017  0.29367703  0.47059771     1.03900
O670        O  0.36527505  0.35233637  0.43398911    -0.84100
O671        O  0.37929553  0.38174193  0.50067164    -0.81100
C672        C  0.41770223  0.37965099  0.51570178     0.99400
O673        O  0.43042244  0.35482500  0.53032050    -0.81200
O674        O  0.45129876  0.29468765  0.51352935    -0.83800
C675        C  0.46153694  0.28848074  0.47967524     1.03900
O676        O  0.43276165  0.29093028  0.45400056    -0.76600
O677        O  0.34928430  0.30452141  0.42057693    -0.76700
C678        C  0.36046517  0.33094691  0.41001402     1.03800
Cr679      Cr  0.33457100  0.34925453  0.48435781     1.93700
Cr680      Cr  0.39880220  0.31546766  0.53951711     1.93200
Cr681      Cr  0.36844941  0.28370927  0.46669654     1.39100
O682        O  0.36734290  0.31658288  0.49737074    -1.21800
O683        O  0.50956274  0.32981475  0.24161330    -0.84100
O684        O  0.47023558  0.35739654  0.18303746    -0.81100
C685        C  0.47586965  0.33588149  0.15860333     0.99400
O686        O  0.45336773  0.31117047  0.16036041    -0.81200
O687        O  0.39464461  0.26536447  0.18388146    -0.83800
C688        C  0.42056848  0.24673499  0.19987940     1.03900
O689        O  0.44578060  0.25650549  0.22542925    -0.76600
O690        O  0.48377832  0.29400652  0.27885633    -0.76800
C691        C  0.51648317  0.30662957  0.26169976     1.03900
O692        O  0.43996058  0.35397636  0.29310535    -0.84100
O693        O  0.39340334  0.37732762  0.23137270    -0.81100
C694        C  0.37202997  0.37648325  0.20092036     0.99400
O695        O  0.38414111  0.35703836  0.17600481    -0.81200
O696        O  0.33499964  0.31201011  0.20945865    -0.83800
C697        C  0.32502380  0.29072744  0.23140468     1.03900
O698        O  0.35534826  0.27597511  0.24881427    -0.76600
O699        O  0.39294726  0.31522666  0.29941934    -0.76700
C700        C  0.41101220  0.33942958  0.31243014     1.03800
Cr701      Cr  0.45111544  0.35252010  0.23695997     1.93700
Cr702      Cr  0.39427353  0.31189931  0.18524565     1.93200
Cr703      Cr  0.41979558  0.28768091  0.26095499     1.39100
O704        O  0.42156368  0.31743134  0.22825153    -1.21800
C705        C  0.36485121  0.33508314  0.36936020    -0.15200
C706        C  0.39999434  0.34875906  0.35180346    -0.30300
H707        H  0.34255944  0.32027057  0.35297711     0.13900
H708        H  0.42364265  0.36312708  0.36734612     0.14400
C709        C  0.53063175  0.26350492  0.49944771    -0.15200
C710        C  0.50625713  0.27484773  0.47146205    -0.30300
H711        H  0.51881222  0.26604273  0.52808239     0.13900
H712        H  0.51857059  0.27307840  0.44289811     0.14400
C713        C  0.61299790  0.18992244  0.62539140    -0.15200
C714        C  0.65446820  0.18771395  0.60935528    -0.30300
H715        H  0.58310716  0.19163113  0.60813912     0.13900
H716        H  0.68404146  0.18477770  0.62673384     0.14400
C717        C  0.78782265  0.25460798  0.75183278    -0.15200
C718        C  0.75468468  0.26082981  0.72782888    -0.30300
H719        H  0.78243635  0.23857367  0.77437847     0.13900
H720        H  0.76026205  0.27685767  0.70529580     0.14400
C721        C  0.91486645  0.33074391  0.86210413    -0.15200
C722        C  0.87376733  0.33058511  0.87917223    -0.30300
H723        H  0.94512027  0.33421243  0.87863633     0.13900
H724        H  0.84332407  0.32902362  0.86250274     0.14400
C725        C  0.26457117  0.25501630  0.24830283    -0.15200
C726        C  0.27763626  0.28201766  0.23421904    -0.30300
H727        H  0.28906927  0.23910157  0.25992093     0.13900
H728        H  0.25287332  0.29784684  0.22277529     0.14400
C729        C  0.02096060  0.29659434  0.00472212    -0.15200
C730        C  0.03275467  0.26683191  0.99761379    -0.30300
H731        H  0.04643325  0.31412411  0.01058097     0.13900
H732        H  0.00672916  0.24969398  0.99161831     0.14400
C733        C  0.16832763  0.19947381  0.11044525    -0.15200
C734        C  0.12835693  0.19575850  0.12826387    -0.30300
H735        H  0.19920647  0.20169137  0.12648855     0.13900
H736        H  0.09765887  0.19209227  0.11234767     0.14400
C737        C  0.37806809  0.09368563  0.87534107    -0.15200
C738        C  0.42054491  0.09470183  0.86122785    -0.30300
H739        H  0.34942612  0.09418814  0.85658486     0.13900
H740        H  0.44933740  0.09556285  0.87981215     0.14400
C741        C  0.52675641  0.02030686  0.02177349    -0.15200
C742        C  0.49720334  0.01780166  0.99397403    -0.30300
H743        H  0.49900971  0.48376399  0.96746231     0.13900
H744        H  0.50547852  0.00331244  0.96969115     0.14400
C745        C  0.65265051  0.43722050  0.10496618    -0.15200
C746        C  0.61253438  0.44154239  0.12255498    -0.30300
H747        H  0.68280254  0.43280911  0.12118356     0.13900
H748        H  0.58177204  0.44432477  0.10658074     0.14400
C749        C  0.29763784  0.02082267  0.74885902    -0.15200
C750        C  0.27017772  0.01363648  0.72039754    -0.30300
H751        H  0.28815829  0.01531614  0.77724583     0.13900
H752        H  0.28822784  0.51230107  0.70131029     0.14400
C753        C  0.13518126  0.43088974  0.62206153    -0.15200
C754        C  0.17708900  0.43381242  0.60729343    -0.30300
H755        H  0.10630407  0.43036893  0.60354056     0.13900
H756        H  0.20613024  0.43478775  0.62563401     0.14400
C757        C  0.75494112  0.00875793  0.25061527    -0.15200
C758        C  0.76695692  0.03854661  0.25250114    -0.30300
H759        H  0.78069912  0.99066880  0.25166320     0.13900
H760        H  0.74174669  0.05689853  0.25083313     0.14400
C761        C  0.02865369  0.00690411  0.49782133    -0.15200
C762        C  0.01696875  0.03573574  0.50885940    -0.30300
H763        H  0.03197253  0.52621602  0.53855310     0.13900
H764        H  0.04249551  0.05222028  0.51811073     0.14400
C765        C  0.87136451  0.09866680  0.39401989    -0.15200
C766        C  0.90976188  0.10017153  0.37310181    -0.30300
H767        H  0.83885490  0.09811722  0.38010017     0.13900
H768        H  0.94214263  0.10251438  0.38697081     0.14400
C769        C  0.98341146  0.31100865  0.59891284    -0.15200
C770        C  0.98401962  0.33242199  0.62676394    -0.30300
H771        H  0.98513614  0.28644545  0.60507166     0.13900
H772        H  0.98471589  0.35696461  0.62039010     0.14400
C773        C  0.07601091  0.36984082  0.47543126    -0.15200
C774        C  0.09027967  0.39346663  0.45440871    -0.30300
H775        H  0.09617060  0.36262224  0.49885195     0.13900
H776        H  0.06954265  0.39973355  0.43087443     0.14400
C777        C  0.91924563  0.44506571  0.53117512    -0.15200
C778        C  0.87861095  0.45772606  0.52360364    -0.30300
H779        H  0.94909772  0.45962805  0.53392420     0.13900
H780        H  0.85017168  0.44300126  0.51603744     0.14400
C781        C  0.80867459  0.25410508  0.52878357    -0.15200
C782        C  0.84000572  0.25696778  0.50129466    -0.30300
H783        H  0.81066772  0.26940423  0.55311547     0.13900
H784        H  0.83758779  0.24244827  0.47633364     0.14400
C785        C  0.77107831  0.32716461  0.13462709    -0.15200
C786        C  0.77093620  0.34006123  0.10062035    -0.30300
H787        H  0.73840792  0.32172592  0.14705067     0.13900
H788        H  0.73815616  0.34530027  0.08870771     0.14400
C789        C  0.73237954  0.38619783  0.27423216    -0.15200
C790        C  0.69237378  0.38296445  0.25626857    -0.30300
H791        H  0.73529193  0.40458624  0.29520418     0.13900
H792        H  0.68962170  0.36568766  0.23398730     0.14400
C793        C  0.88046692  0.44259371  0.18030794    -0.15200
C794        C  0.91864673  0.45808199  0.18845715    -0.30300
H795        H  0.84916373  0.45537652  0.17614808     0.13900
H796        H  0.94846883  0.44521642  0.19692028     0.14400
C797        C  0.88331348  0.32131367  0.35090570    -0.15200
C798        C  0.92563022  0.31926170  0.36471601    -0.30300
H799        H  0.85440396  0.32165821  0.36990856     0.13900
H800        H  0.95477323  0.31739250  0.34607986     0.14400
C801        C  0.94195652  0.25587294  0.21891978    -0.15200
C802        C  0.98190090  0.25740151  0.20053816    -0.30300
H803        H  0.93891008  0.24060612  0.24247234     0.13900
H804        H  0.98520000  0.27395587  0.17827709     0.14400
C805        C  0.24344456  0.47329541  0.35058315    -0.15200
C806        C  0.24572123  0.45108229  0.37613100    -0.30300
H807        H  0.24297206  0.49758340  0.35937889     0.13900
H808        H  0.24914473  0.42693208  0.36711658     0.14400
C809        C  0.05198551  0.03391787  0.28822111    -0.15200
C810        C  0.08718856  0.03474126  0.26368767    -0.30300
H811        H  0.05248331  0.01674053  0.30990713     0.13900
H812        H  0.08589117  0.05093570  0.24096990     0.14400
C813        C  0.02965291  0.40567519  0.23528245    -0.15200
C814        C  0.01783239  0.37632647  0.22699957    -0.30300
H815        H  0.00381392  0.42240386  0.24403948     0.13900
H816        H  0.04342049  0.35928681  0.21864912     0.14400
C817        C  0.31710477  0.41978895  0.21562553    -0.15200
C818        C  0.33084252  0.39564759  0.19401483    -0.30300
H819        H  0.33915559  0.42809875  0.23768128     0.13900
H820        H  0.30923729  0.38799782  0.17132838     0.14400
C821        C  0.17033325  0.34240322  0.27954367    -0.15200
C822        C  0.12919011  0.32978230  0.28458069    -0.30300
H823        H  0.19976449  0.32767030  0.27405279     0.13900
H824        H  0.09892005  0.34426417  0.28497510     0.14400
C825        C  0.04992114  0.46437632  0.84893595    -0.15200
C826        C  0.04798597  0.44560044  0.87820786    -0.30300
H827        H  0.05162819  0.48921182  0.85457939     0.13900
H828        H  0.04795695  0.42073274  0.87255020     0.14400
C829        C  0.97811678  0.40257788  0.02886283    -0.15200
C830        C  0.93953656  0.40815900  0.01024479    -0.30300
H831        H  0.97856098  0.38437280  0.04929988     0.13900
H832        H  0.93972621  0.42407649  0.98721459     0.14400
C833        C  0.13953796  0.33949007  0.93104268    -0.15200
C834        C  0.17706672  0.32480678  0.94291759    -0.30300
H835        H  0.11121133  0.32656632  0.91957491     0.13900
H836        H  0.20397945  0.33865694  0.95533643     0.14400
C837        C  0.11645264  0.47328668  0.10742112    -0.15200
C838        C  0.15835881  0.47594347  0.12170140    -0.30300
H839        H  0.08857733  0.46839861  0.12639861     0.13900
H840        H  0.18714941  0.47997501  0.10336516     0.14400
C841        C  0.18555146  0.02242018  0.96644399    -0.15200
C842        C  0.22637548  0.02334432  0.94910099    -0.30300
H843        H  0.17470685  0.04147102  0.98469771     0.13900
H844        H  0.23464594  0.00423515  0.92995137     0.14400
C845        C  0.27854005  0.33985399  0.63129222    -0.15200
C846        C  0.27682358  0.34799212  0.59513411    -0.30300
H847        H  0.24617484  0.33805504  0.64578577     0.13900
H848        H  0.24311057  0.35289666  0.58474865     0.14400
C849        C  0.45359629  0.26630478  0.69384568    -0.15200
C850        C  0.46682294  0.24794937  0.72147480    -0.30300
H851        H  0.47577053  0.26923155  0.66984815     0.13900
H852        H  0.44462263  0.24454266  0.74534071     0.14400
C853        C  0.24118153  0.38189568  0.77875570    -0.15200
C854        C  0.20106943  0.38088471  0.76085786    -0.30300
H855        H  0.24608875  0.39997963  0.79988592     0.13900
H856        H  0.19403542  0.36269598  0.74040291     0.14400
C857        C  0.38859769  0.45242352  0.70097671    -0.15200
C858        C  0.42969830  0.46595626  0.70125265    -0.30300
H859        H  0.35830909  0.46660021  0.70501177     0.13900
H860        H  0.46008909  0.45167380  0.70241980     0.14400
C861        C  0.50319957  0.31886186  0.09806520    -0.15200
C862        C  0.50266061  0.34125083  0.12472217    -0.30300
H863        H  0.50598692  0.29477086  0.10617724     0.13900
H864        H  0.50466001  0.36538895  0.11666324     0.14400
C865        C  0.33410979  0.26638999  0.02821131    -0.15200
C866        C  0.31887798  0.24341428  0.00632135    -0.30300
H867        H  0.31350092  0.27399875  0.05196521     0.13900
H868        H  0.33960934  0.23488174  0.98310235     0.14400
C869        C  0.28664237  0.38447966  0.98056680    -0.15200
C870        C  0.25907377  0.39302055  0.00919026    -0.30300
H871        H  0.27729912  0.38932429  0.95211339     0.13900
H872        H  0.26946214  0.38961700  0.03772929     0.14400
C873        C  0.42302014  0.31208386  0.86747813    -0.15200
C874        C  0.38323157  0.31375590  0.84922158    -0.30300
H875        H  0.45457316  0.31078459  0.85167029     0.13900
H876        H  0.35175889  0.31355321  0.86517936     0.14400
C877        C  0.57331946  0.36263494  0.96838435    -0.15200
C878        C  0.58947455  0.38441081  0.94581071    -0.30300
H879        H  0.59346880  0.35555473  0.99189331     0.13900
H880        H  0.56960338  0.39057557  0.92174042     0.14400
C881        C  0.42002327  0.44602070  0.02680818    -0.15200
C882        C  0.37766964  0.45774117  0.02647210    -0.30300
H883        H  0.44931066  0.46114612  0.02467322     0.13900
H884        H  0.34853384  0.44253309  0.02345094     0.14400
C885        C  0.55456175  0.46919929  0.38706058    -0.15200
C886        C  0.55196193  0.44712603  0.35989241    -0.30300
H887        H  0.55467300  0.49353498  0.37971729     0.13900
H888        H  0.54933595  0.42288042  0.36731832     0.14400
C889        C  0.69454638  0.03672127  0.49341922    -0.15200
C890        C  0.73209481  0.03558490  0.47171087    -0.30300
H891        H  0.69370803  0.05193166  0.51790617     0.13900
H892        H  0.73331649  0.01923258  0.44829285     0.14400
C893        C  0.76525768  0.39745173  0.50232872    -0.15200
C894        C  0.79280733  0.39484058  0.47262631    -0.30300
H895        H  0.77355810  0.38535165  0.52763276     0.13900
H896        H  0.78534848  0.40697579  0.44720468     0.14400
C897        C  0.48684281  0.40626719  0.53629866    -0.15200
C898        C  0.44994993  0.40613628  0.51455097    -0.30300
H899        H  0.48951286  0.38876038  0.55752235     0.13900
H900        H  0.44585278  0.42360594  0.49349817     0.14400
C901        C  0.63043097  0.33979455  0.45833115    -0.15200
C902        C  0.67157119  0.32683397  0.46239692    -0.30300
H903        H  0.60014916  0.32549507  0.45719410     0.13900
H904        H  0.70085929  0.34115706  0.46885799     0.14400
C905        C  0.76666234  0.46423328  0.85877840    -0.15200
C906        C  0.76638616  0.44303599  0.88540725    -0.30300
H907        H  0.77060600  0.48844724  0.86718476     0.13900
H908        H  0.77183551  0.41888938  0.87713465     0.14400
C909        C  0.82239896  0.40870719  0.73055313    -0.15200
C910        C  0.83046875  0.38254017  0.71063174    -0.30300
H911        H  0.84691865  0.41655986  0.75099968     0.13900
H912        H  0.80605850  0.37542440  0.68970755     0.14400
C913        C  0.66809475  0.33731643  0.79026233    -0.15200
C914        C  0.62607690  0.32567659  0.78559013    -0.30300
H915        H  0.69740393  0.32194425  0.78935863     0.13900
H916        H  0.59752434  0.34124997  0.78167947     0.14400
C917        C  0.53659404  0.40577681  0.74925146    -0.15200
C918        C  0.52420795  0.37839290  0.73415494    -0.30300
H919        H  0.51119574  0.42150039  0.76117977     0.13900
H920        H  0.54936089  0.36262614  0.72197895     0.14400
C921        C  0.67357245  0.46934606  0.63541922    -0.15200
C922        C  0.63232991  0.47076503  0.61978893    -0.30300
H923        H  0.70380797  0.46920709  0.61788455     0.13900
H924        H  0.60215416  0.47242694  0.63731268     0.14400
C925        C  0.59116572  0.01863819  0.79170808    -0.15200
C926        C  0.58026885  0.04163494  0.76871265    -0.30300
H927        H  0.56745280  0.01272430  0.81376972     0.13900
H928        H  0.60393339  0.04814872  0.74690157     0.14400
C929        C  0.05189480  0.22570984  0.39071932    -0.15200
C930        C  0.04565611  0.20499730  0.36251614    -0.30300
H931        H  0.05367846  0.25034432  0.38502822     0.13900
H932        H  0.04177589  0.18056985  0.36873323     0.14400
C933        C  0.96520327  0.16570470  0.52419195    -0.15200
C934        C  0.94979281  0.14741678  0.55122615    -0.30300
H935        H  0.94414942  0.17025730  0.50027783     0.13900
H936        H  0.97089530  0.14364236  0.57534697     0.14400
C937        C  0.11647152  0.08770583  0.44868838    -0.15200
C938        C  0.15769198  0.07436498  0.44450428    -0.30300
H939        H  0.08688280  0.07317099  0.45273621     0.13900
H940        H  0.18779213  0.08881095  0.44519388     0.14400
C941        C  0.22839809  0.28096391  0.46388830    -0.15200
C942        C  0.20308221  0.27087762  0.49232203    -0.30300
H943        H  0.21878062  0.27569273  0.43537968     0.13900
H944        H  0.21293617  0.27691375  0.52061919     0.14400
C945        C  0.25848810  0.21428214  0.85881312    -0.15200
C946        C  0.25573861  0.19334095  0.88581981    -0.30300
H947        H  0.26033514  0.23875214  0.86662930     0.13900
H948        H  0.26069849  0.16893076  0.87856020     0.14400
C949        C  0.07134373  0.28243273  0.76157808    -0.15200
C950        C  0.08611189  0.26071465  0.78484162    -0.30300
H951        H  0.09303840  0.28972226  0.73879886     0.13900
H952        H  0.06444354  0.25419739  0.80801753     0.14400
C953        C  0.33199216  0.16652864  0.72786715    -0.15200
C954        C  0.34584578  0.14289943  0.70566409    -0.30300
H955        H  0.35326448  0.17444733  0.75062868     0.13900
H956        H  0.32458297  0.13585754  0.68247103     0.14400
C957        C  0.19397990  0.08294017  0.79104771    -0.15200
C958        C  0.15629946  0.06868990  0.80365609    -0.30300
H959        H  0.21982751  0.06913842  0.77648039     0.13900
H960        H  0.12945574  0.08159774  0.81802273     0.14400
C961        C  0.16557518  0.21494814  0.63357392    -0.15200
C962        C  0.12246468  0.21160817  0.62193932    -0.30300
H963        H  0.19260047  0.21897586  0.61350705     0.13900
H964        H  0.09530265  0.20846386  0.64214616     0.14400
C965        C  0.50089858  0.07240906  0.60149028    -0.15200
C966        C  0.50489594  0.09336255  0.62949271    -0.30300
H967        H  0.50342446  0.04779260  0.60723689     0.13900
H968        H  0.50553966  0.11795288  0.62334883     0.14400
C969        C  0.32885312  0.02747284  0.52743797    -0.15200
C970        C  0.32462716  0.50182424  0.50858055    -0.30300
H971        H  0.30607257  0.03390624  0.55029952     0.13900
H972        H  0.34064800  0.99715521  0.48188823     0.14400
C973        C  0.57097277  0.12267518  0.47236831    -0.15200
C974        C  0.58588192  0.14558796  0.45078242    -0.30300
H975        H  0.59212249  0.11467132  0.49482585     0.13900
H976        H  0.56481548  0.15285755  0.42788735     0.14400
C977        C  0.43301241  0.20670251  0.54049099    -0.15200
C978        C  0.39579855  0.22156402  0.55409128    -0.30300
H979        H  0.45853602  0.22009253  0.52588073     0.13900
H980        H  0.36915978  0.20910796  0.56847462     0.14400
C981        C  0.28747912  0.15113574  0.48988293    -0.15200
C982        C  0.25210796  0.14265798  0.51103725    -0.30300
H983        H  0.28341353  0.16885975  0.46909619     0.13900
H984        H  0.25591463  0.12462379  0.53146569     0.14400
C985        C  0.28187981  0.06950520  0.13067117    -0.15200
C986        C  0.27920176  0.09015699  0.10320568    -0.30300
H987        H  0.27880515  0.04488593  0.12398653     0.13900
H988        H  0.27902390  0.11482258  0.11019344     0.14400
C989        C  0.21547706  0.12710668  0.26176698    -0.15200
C990        C  0.19952314  0.14843637  0.28612473    -0.30300
H991        H  0.19434943  0.11985685  0.23859764     0.13900
H992        H  0.22021106  0.15482418  0.30991150     0.14400
C993        C  0.37372381  0.20064744  0.19307935    -0.15200
C994        C  0.41556010  0.21314743  0.19348720    -0.30300
H995        H  0.34409099  0.21572888  0.19434447     0.13900
H996        H  0.44498124  0.19834852  0.19743124     0.14400
C997        C  0.44922606  0.02022648  0.21045909    -0.15200
C998        C  0.48095852  0.51361876  0.21272752    -0.30300
H999        H  0.47035842  0.02240133  0.18570547     0.13900
H1000       H  0.44307015  0.00132507  0.26366235     0.14400
C1001       C  0.36887980  0.07665528  0.35968164    -0.15200
C1002       C  0.41068943  0.07585221  0.37469685    -0.30300
H1003       H  0.33918705  0.07744040  0.37780593     0.13900
H1004       H  0.44021820  0.07360735  0.35651632     0.14400
C1005       C  0.75372780  0.22236492  0.35874181    -0.15200
C1006       C  0.75812307  0.20156662  0.38571074    -0.30300
H1007       H  0.75641782  0.24688879  0.36606726     0.13900
H1008       H  0.76292316  0.17733087  0.37753778     0.14400
C1009       C  0.57470696  0.27142135  0.28755843    -0.15200
C1010       C  0.56295646  0.29303004  0.26290347    -0.30300
H1011       H  0.55141262  0.26634403  0.31022126     0.13900
H1012       H  0.58678169  0.29907359  0.24099531     0.14400
C1013       C  0.82882506  0.14289346  0.21180063    -0.15200
C1014       C  0.81133676  0.16478662  0.23496260    -0.30300
H1015       H  0.80850814  0.13513329  0.18836378     0.13900
H1016       H  0.83206491  0.17343118  0.25770757     0.14400
C1017       C  0.66344514  0.08959332  0.30963957    -0.15200
C1018       C  0.62293750  0.07531237  0.31129754    -0.30300
H1019       H  0.69387259  0.07561580  0.30545167     0.13900
H1020       H  0.59226212  0.08936452  0.31078145     0.14400
C1021       C  0.50677282  0.12926443  0.24356978    -0.15200
C1022       C  0.52106300  0.15578115  0.25917544    -0.30300
H1023       H  0.53120190  0.11258571  0.23216512     0.13900
H1024       H  0.49652351  0.17246862  0.27040346     0.14400
C1025       C  0.55811735  0.22057374  0.88942243    -0.15200
C1026       C  0.55570526  0.19831652  0.86247442    -0.30300
H1027       H  0.55908436  0.24491697  0.88216813     0.13900
H1028       H  0.55249225  0.17412149  0.87000960     0.14400
C1029       C  0.60341295  0.21159065  0.12638151    -0.15200
C1030       C  0.64630216  0.21130839  0.13935074    -0.30300
H1031       H  0.57479172  0.21212309  0.14563633     0.13900
H1032       H  0.67454749  0.21184278  0.11972617     0.14400
C1033       C  0.45389939  0.16475083  0.01115832    -0.15200
C1034       C  0.43620906  0.14312680  0.03349412    -0.30300
H1035       H  0.43636434  0.17097810  0.98595800     0.13900
H1036       H  0.45422009  0.13805086  0.05891204     0.14400
C1037       C  0.61548028  0.08574745  0.95887565    -0.15200
C1038       C  0.65740963  0.07337028  0.96214349    -0.30300
H1039       H  0.58587182  0.07081090  0.95956418     0.13900
H1040       H  0.68650545  0.08849305  0.96589203     0.14400
C1041       C  0.69818586  0.27203423  0.99565615    -0.15200
C1042       C  0.73602928  0.27077911  0.97392995    -0.30300
H1043       H  0.69571273  0.28939844  0.01792556     0.13900
H1044       H  0.73882178  0.25232163  0.95296888     0.14400
C1045       C  0.77530374  0.07782840  0.61768430    -0.15200
C1046       C  0.77694355  0.07109519  0.65420826    -0.30300
H1047       H  0.74193585  0.07897757  0.60526116     0.13900
H1048       H  0.74450414  0.06649437  0.66758692     0.14400
C1049       C  0.70157228  0.14106113  0.76293902    -0.15200
C1050       C  0.74185348  0.15198927  0.77422921    -0.30300
H1051       H  0.69955125  0.11916231  0.74754075     0.13900
H1052       H  0.74369104  0.17547933  0.78574579     0.14400
C1053       C  0.92632873  0.18622892  0.66538158    -0.15200
C1054       C  0.95037842  0.21159941  0.67464991    -0.30300
H1055       H  0.93441273  0.17479197  0.63889486     0.13900
H1056       H  0.97618951  0.21919005  0.65512678     0.14400
C1057       C  0.95620024  0.01615409  0.72911459    -0.15200
C1058       C  0.99859285  0.51558122  0.69634851    -0.30300
H1059       H  0.95488432  0.00088176  0.75275322     0.13900
H1060       H  0.00603428  0.53861631  0.68620061     0.14400
C1061       C  0.01853060  0.13860719  0.76145423    -0.15200
C1062       C  0.05042623  0.13965743  0.73498174    -0.30300
H1063       H  0.02619999  0.14599064  0.78981564     0.13900
H1064       H  0.04406989  0.13112876  0.70686462     0.14400
C1065       C  0.99339199  0.09791518  0.11917474    -0.15200
C1066       C  0.99840771  0.07463514  0.14236417    -0.30300
H1067       H  0.99354650  0.12111816  0.13173347     0.13900
H1068       H  0.00073040  0.05151903  0.12969911     0.14400
C1069       C  0.73674568  0.13749673  0.02567030    -0.15200
C1070       C  0.76822820  0.13785175  0.99874786    -0.30300
H1071       H  0.74218760  0.12526856  0.05138932     0.13900
H1072       H  0.76211708  0.15023768  0.97320896     0.14400
C1073       C  0.88036180  0.10411816  0.87160790    -0.15200
C1074       C  0.90175124  0.08267423  0.89247420    -0.30300
H1075       H  0.86994829  0.12580372  0.88515659     0.13900
H1076       H  0.91290525  0.06075681  0.88001607     0.14400
C1077       C  0.80384786  0.50054336  0.02735762    -0.15200
C1078       C  0.82547613  0.02316147  0.05075384    -0.30300
H1079       H  0.80208475  0.51759619  0.05002557     0.13900
H1080       H  0.80480791  0.02780536  0.07547058     0.14400
C1081       C  0.05894178  0.12956370  0.98956702    -0.15200
C1082       C  0.07288044  0.15017350  0.96454760    -0.30300
H1083       H  0.08256252  0.12049882  0.00966040     0.13900
H1084       H  0.04933719  0.15763117  0.94341158     0.14400
C1085       C  0.87681027  0.20655174  0.06353603    -0.15200
C1086       C  0.90610404  0.22971749  0.06302448    -0.30300
H1087       H  0.84060213  0.21148649  0.06352554     0.13900
H1088       H  0.94230982  0.22527892  0.06481115     0.14400
O1089       O  0.00247307  0.59334351  0.97806300    -0.84100
O1090       O  0.96466646  0.56225122  0.03496242    -0.81100
C1091       C  0.95778413  0.58467367  0.05819612     0.99400
O1092       O  0.92250986  0.60078758  0.05683995    -0.81200
O1093       O  0.86166694  0.63852347  0.02704343    -0.83800
C1094       C  0.88803486  0.65964277  0.01697524     1.03900
O1095       O  0.91828036  0.65422678  0.99257478    -0.76600
O1096       O  0.97063856  0.62400089  0.93830836    -0.76800
C1097       C  0.00511929  0.61566507  0.95603550     1.03900
O1098       O  0.94567611  0.56048055  0.92266487    -0.84100
O1099       O  0.90291021  0.53016731  0.97985704    -0.81100
C1100       C  0.87402757  0.52696017  0.00564276     0.99400
O1101       O  0.87239072  0.54700444  0.03170662    -0.81200
O1102       O  0.81846809  0.58769516  0.99251372    -0.83800
C1103       C  0.80834355  0.61045343  0.97264534     1.03900
O1104       O  0.83841734  0.62806320  0.95957542    -0.76600
O1105       O  0.89031289  0.59361831  0.91308996    -0.76700
C1106       C  0.91471645  0.57125498  0.90199216     1.03800
Cr1107     Cr  0.95096030  0.56320995  0.97942066     1.93700
Cr1108     Cr  0.87180584  0.59293385  0.02422341     1.93200
Cr1109     Cr  0.90508849  0.62275664  0.95321902     1.39100
O1110       O  0.90930557  0.59270918  0.98524914    -1.21800
O1111       O  0.78140498  0.58543061  0.75711875    -0.84100
O1112       O  0.79856073  0.56228630  0.68706496    -0.81100
C1113       C  0.81020375  0.56889056  0.65428039     0.99400
O1114       O  0.85004458  0.57777108  0.64681797    -0.81200
O1115       O  0.86860714  0.63791573  0.66787179    -0.83800
C1116       C  0.87947094  0.66091226  0.68780730     1.03900
O1117       O  0.88398893  0.65798680  0.72223724    -0.76600
O1118       O  0.80260529  0.63385101  0.74763004    -0.76800
C1119       C  0.77235462  0.61442904  0.75556445     1.03900
O1120       O  0.86594260  0.55361056  0.78170361    -0.84100
O1121       O  0.87918440  0.52886218  0.71263392    -0.81100
C1122       C  0.91912513  0.53305422  0.70045947     0.99400
O1123       O  0.93058721  0.55886107  0.68774004    -0.81200
O1124       O  0.94866520  0.61811891  0.70642084    -0.83800
C1125       C  0.95922448  0.62121377  0.74055318     1.03900
O1126       O  0.93069053  0.61690121  0.76629531    -0.76600
O1127       O  0.84988831  0.60031366  0.80107333    -0.76700
C1128       C  0.86188878  0.57309577  0.80796565     1.03800
Cr1129     Cr  0.83366783  0.56005522  0.73356504     1.93700
Cr1130     Cr  0.89654511  0.59745287  0.68051125     1.93200
Cr1131     Cr  0.86643575  0.62461131  0.75645299     1.39100
O1132       O  0.86534834  0.59377879  0.72294230    -1.21800
O1133       O  0.53259173  0.65979147  0.02875774    -0.84100
O1134       O  0.57668510  0.62064733  0.97726800    -0.81100
C1135       C  0.60602845  0.61149238  0.95367770     0.99400
O1136       O  0.63549153  0.62993258  0.94164771    -0.81200
O1137       O  0.59242246  0.67973153  0.91363586    -0.83800
C1138       C  0.57187298  0.70503483  0.91060363     1.03900
O1139       O  0.57086813  0.72457580  0.93751736    -0.76600
O1140       O  0.51637273  0.69435197  0.98706306    -0.76800
C1141       C  0.50407147  0.67292303  0.00811581     1.03900
O1142       O  0.62054059  0.67537790  0.05832355    -0.84100
O1143       O  0.66082339  0.63291409  0.01236631    -0.81100
C1144       C  0.69636895  0.64466900  0.99900758     0.99400
O1145       O  0.69504727  0.66891486  0.97995379    -0.81200
O1146       O  0.66098054  0.72038337  0.94549463    -0.83800
C1147       C  0.66265297  0.73974898  0.97243934     1.03900
O1148       O  0.63281385  0.73927537  0.99782717    -0.76600
O1149       O  0.57368448  0.71398262  0.04901741    -0.76700
C1150       C  0.60083745  0.69962292  0.06984195     1.03800
Cr1151     Cr  0.59779855  0.64960287  0.01711361     1.93700
Cr1152     Cr  0.64288520  0.67546725  0.94771657     1.93200
Cr1153     Cr  0.57544109  0.71565032  0.99249793     1.39100
O1154       O  0.60556907  0.68022341  0.98595385    -1.21800
O1155       O  0.73568371  0.66329185  0.19436096    -0.84100
O1156       O  0.70074818  0.62672139  0.24892204    -0.81100
C1157       C  0.67735592  0.61777082  0.27603510     0.99400
O1158       O  0.64932325  0.63600565  0.29174424    -0.81200
O1159       O  0.70006498  0.68665446  0.31387118    -0.83800
C1160       C  0.72097452  0.71208259  0.31357929     1.03900
O1161       O  0.71343286  0.73150587  0.28839740    -0.76600
O1162       O  0.75789643  0.70040374  0.23251378    -0.76800
C1163       C  0.76702158  0.67681979  0.21233448     1.03900
O1164       O  0.64265163  0.67961703  0.17451036    -0.84100
O1165       O  0.60945950  0.63984875  0.22536204    -0.81100
C1166       C  0.57678001  0.65312432  0.24255864     0.99400
O1167       O  0.58321508  0.67609686  0.26415100    -0.81200
O1168       O  0.62553173  0.72699249  0.29448051    -0.83800
C1169       C  0.61471430  0.74495545  0.26862822     1.03900
O1170       O  0.63818397  0.74474204  0.23882025    -0.76600
O1171       O  0.68935663  0.71879954  0.17951527    -0.76700
C1172       C  0.66009943  0.70358186  0.16127006     1.03800
Cr1173     Cr  0.67215682  0.65476341  0.21291648     1.93700
Cr1174     Cr  0.64203445  0.68196245  0.28817573     1.93200
Cr1175     Cr  0.69768094  0.72160378  0.23522546     1.39100
O1176       O  0.67025987  0.68611849  0.24508435    -1.21800
O1177       O  0.26767439  0.59256482  0.24713059    -0.84100
O1178       O  0.31949355  0.55663073  0.20015202    -0.81100
C1179       C  0.31911104  0.57375185  0.17188391     0.99400
O1180       O  0.34109615  0.59872010  0.17184869    -0.81200
O1181       O  0.38833913  0.65108432  0.19511543    -0.83800
C1182       C  0.35893138  0.67092103  0.20586579     1.03900
O1183       O  0.33081290  0.66406129  0.23094698    -0.76600
O1184       O  0.28501905  0.63137271  0.28459395    -0.76800
C1185       C  0.25615737  0.61692389  0.26474464     1.03900
O1186       O  0.32587677  0.57720104  0.31005105    -0.84100
O1187       O  0.38254292  0.54589571  0.26023455    -0.81100
C1188       C  0.41100107  0.54177392  0.23411335     0.99400
O1189       O  0.40946337  0.55898712  0.20579151    -0.81200
O1190       O  0.44676719  0.61194136  0.23519430    -0.83800
C1191       C  0.45087080  0.63682003  0.25383904     1.03900
O1192       O  0.41636660  0.65172851  0.26573416    -0.76600
O1193       O  0.37397586  0.61552405  0.31552349    -0.76700
C1194       C  0.35478295  0.59232199  0.32896887     1.03800
Cr1195     Cr  0.32600243  0.57048509  0.25389554     1.93700
Cr1196     Cr  0.39333453  0.60492588  0.20453439     1.93200
Cr1197     Cr  0.35158320  0.63808749  0.27238971     1.39100
O1198       O  0.35715223  0.60452235  0.24379900    -1.21800
O1199       O  0.51570804  0.59539962  0.49245375    -0.84100
O1200       O  0.46931419  0.56535497  0.54689361    -0.81100
C1201       C  0.47263502  0.58502950  0.57348157     0.99400
O1202       O  0.45072905  0.61007280  0.57316146    -0.81200
O1203       O  0.40209770  0.65981671  0.55055597    -0.83800
C1204       C  0.43207690  0.67740595  0.53768229     1.03900
O1205       O  0.45780253  0.66793608  0.51173591    -0.76600
O1206       O  0.49505868  0.63209420  0.45512298    -0.76800
C1207       C  0.52583290  0.61851422  0.47302612     1.03900
O1208       O  0.44764549  0.57596351  0.43711472    -0.84100
O1209       O  0.39709235  0.54944501  0.49487461    -0.81100
C1210       C  0.37255186  0.54919355  0.52407077     0.99400
O1211       O  0.37905347  0.56924139  0.54958621    -0.81200
O1212       O  0.33815566  0.62020114  0.51777952    -0.83800
C1213       C  0.33376317  0.64375506  0.49770179     1.03900
O1214       O  0.36797079  0.65677308  0.48335201    -0.76600
O1215       O  0.40325050  0.61665259  0.43206828    -0.76700
C1216       C  0.41928547  0.59169186  0.41883893     1.03800
Cr1217     Cr  0.45542764  0.57394502  0.49316561     1.93700
Cr1218     Cr  0.39513070  0.61413423  0.54477596     1.93200
Cr1219     Cr  0.43095790  0.64090516  0.47268001     1.39100
O1220       O  0.42663222  0.60942981  0.50304758    -1.21800
O1221       O  0.23732671  0.66330120  0.69031854    -0.84100
O1222       O  0.20152674  0.62313216  0.74204641    -0.81100
C1223       C  0.17857185  0.61354402  0.76930450     0.99400
O1224       O  0.14692219  0.62976771  0.78319739    -0.81200
O1225       O  0.19611557  0.67591504  0.81360436    -0.83800
C1226       C  0.21979941  0.69988018  0.81750657     1.03900
O1227       O  0.21808796  0.72127777  0.79391821    -0.76600
O1228       O  0.26290411  0.69271755  0.73537981    -0.76800
C1229       C  0.26969973  0.67185895  0.71066639     1.03900
O1230       O  0.14663000  0.68258999  0.67356005    -0.84100
O1231       O  0.11225124  0.63811484  0.71707139    -0.81100
C1232       C  0.07868713  0.65136801  0.73259649     0.99400
O1233       O  0.08372626  0.67289504  0.75653393    -0.81200
O1234       O  0.12698092  0.72010731  0.79542264    -0.83800
C1235       C  0.12106486  0.74104194  0.77194649     1.03900
O1236       O  0.14743664  0.74264015  0.74398964    -0.76600
O1237       O  0.19677509  0.71928124  0.68354295    -0.76700
C1238       C  0.16542767  0.70737114  0.66403187     1.03800
Cr1239     Cr  0.17458146  0.65376590  0.70815554     1.93700
Cr1240     Cr  0.14079071  0.67547888  0.78435559     1.93200
Cr1241     Cr  0.20436261  0.71685802  0.73935650     1.39100
O1242       O  0.17281431  0.68224401  0.74373603    -1.21800
O1243       O  0.04097279  0.66506882  0.53091599    -0.84100
O1244       O  0.09101772  0.63073262  0.47968939    -0.81100
C1245       C  0.12195401  0.62311693  0.45695636     0.99400
O1246       O  0.14922399  0.64324196  0.44524595    -0.81200
O1247       O  0.09676512  0.69212488  0.41871322    -0.83800
C1248       C  0.07239442  0.71625490  0.41846664     1.03900
O1249       O  0.07295704  0.73538196  0.44566276    -0.76600
O1250       O  0.02188787  0.70130405  0.49206859    -0.76800
C1251       C  0.01176214  0.67773673  0.51033476     1.03900
O1252       O  0.12653515  0.68504609  0.56335769    -0.84100
O1253       O  0.17356545  0.64763928  0.51645085    -0.81100
C1254       C  0.20761958  0.66235560  0.50450302     0.99400
O1255       O  0.20295868  0.68572694  0.48415080    -0.81200
O1256       O  0.16057887  0.73569997  0.45197435    -0.83800
C1257       C  0.16227641  0.75339213  0.48057647     1.03900
O1258       O  0.13371897  0.75030434  0.50657043    -0.76600
O1259       O  0.07576620  0.72134817  0.55550303    -0.76700
C1260       C  0.10463727  0.70809438  0.57560548     1.03800
Cr1261     Cr  0.10788733  0.65943771  0.52070836     1.93700
Cr1262     Cr  0.14924018  0.68955826  0.45233470     1.93200
Cr1263     Cr  0.07844621  0.72486924  0.49952875     1.39100
O1264       O  0.11206228  0.69120179  0.49107553    -1.21800
O1265       O  0.74573126  0.91655870  0.70764523    -0.84100
O1266       O  0.70165773  0.87669939  0.75422331    -0.81100
C1267       C  0.67414457  0.86672422  0.77804118     0.99400
O1268       O  0.64683435  0.88512015  0.79443678    -0.81200
O1269       O  0.70139458  0.92920876  0.82750281    -0.83800
C1270       C  0.72248608  0.95394979  0.83428640     1.03900
O1271       O  0.72333628  0.97543531  0.81062523    -0.76600
O1272       O  0.76968594  0.94725259  0.75274947    -0.76800
C1273       C  0.77722498  0.92589586  0.72892894     1.03900
O1274       O  0.65727438  0.94059631  0.68696156    -0.84100
O1275       O  0.61455268  0.89754806  0.72892305    -0.81100
C1276       C  0.58262884  0.91188331  0.74599877     0.99400
O1277       O  0.59080347  0.93345426  0.76893205    -0.81200
O1278       O  0.63639487  0.97668722  0.80991825    -0.83800
C1279       C  0.63494002  0.50098535  0.78355852     1.03900
O1280       O  0.65843050  0.50031133  0.75379382    -0.76600
O1281       O  0.70976463  0.97510167  0.69904276    -0.76700
C1282       C  0.67943010  0.96410152  0.67785179     1.03800
Cr1283     Cr  0.68007491  0.90993764  0.72164251     1.93700
Cr1284     Cr  0.64653576  0.93161164  0.79770998     1.93200
Cr1285     Cr  0.71284237  0.97200349  0.75516026     1.39100
O1286       O  0.67989494  0.93782137  0.75794101    -1.21800
O1287       O  0.56544301  0.91688083  0.55127788    -0.84100
O1288       O  0.61129437  0.88615524  0.49479995    -0.81100
C1289       C  0.63650044  0.88096144  0.46685717     0.99400
O1290       O  0.66062289  0.90243661  0.45360940    -0.81200
O1291       O  0.59902371  0.94565163  0.43229118    -0.83800
C1292       C  0.56945877  0.96668336  0.43270054     1.03900
O1293       O  0.56668434  0.98589197  0.45986131    -0.76600
O1294       O  0.53091042  0.94661129  0.51181438    -0.76800
C1295       C  0.53055789  0.92330539  0.53252347     1.03900
O1296       O  0.65052954  0.94630193  0.57191069    -0.84100
O1297       O  0.69580579  0.91012900  0.51967125    -0.81100
C1298       C  0.72451252  0.92729816  0.50371875     0.99400
O1299       O  0.71201677  0.95146552  0.48792145    -0.81200
O1300       O  0.65642866  0.99564209  0.46042257    -0.83800
C1301       C  0.66593893  0.50392685  0.47672474     1.03900
O1302       O  0.63862363  0.50232331  0.50395575    -0.76600
O1303       O  0.58862914  0.97443662  0.56925204    -0.76700
C1304       C  0.62366493  0.96584931  0.58654292     1.03800
Cr1305     Cr  0.63015063  0.91707762  0.53281190     1.93700
Cr1306     Cr  0.65448068  0.94898833  0.46115389     1.93200
Cr1307     Cr  0.58168731  0.97721234  0.51340965     1.39100
O1308       O  0.62216097  0.94776096  0.50246549    -1.21800
O1309       O  0.49994203  0.83825868  0.97038344    -0.84100
O1310       O  0.48205118  0.81267019  0.03799372    -0.81100
C1311       C  0.47529754  0.82516025  0.06975989     0.99400
O1312       O  0.43965527  0.83995019  0.07730966    -0.81200
O1313       O  0.41381695  0.89526198  0.05249599    -0.83800
C1314       C  0.39721787  0.91546834  0.03229759     1.03900
O1315       O  0.38864610  0.90885864  0.99916706    -0.76600
O1316       O  0.47293126  0.88667332  0.97421052    -0.76800
C1317       C  0.50586868  0.86781766  0.97095019     1.03900
O1318       O  0.41803720  0.80394702  0.93972758    -0.84100
O1319       O  0.39945801  0.78242719  0.00881908    -0.81100
C1320       C  0.36618811  0.78687079  0.03104304     0.99400
O1321       O  0.36011783  0.81222618  0.04812843    -0.81200
O1322       O  0.33255464  0.86712697  0.02194888    -0.83800
C1323       C  0.31891187  0.86674099  0.98851142     1.03900
O1324       O  0.34572478  0.86230496  0.96099535    -0.76600
O1325       O  0.42871884  0.85061491  0.92175723    -0.76700
C1326       C  0.42066000  0.82293744  0.91365448     1.03800
Cr1327     Cr  0.44745811  0.81184191  0.99023101     1.93700
Cr1328     Cr  0.38908236  0.85279678  0.04606258     1.93200
Cr1329     Cr  0.40968641  0.87428198  0.96714708     1.39100
O1330       O  0.41568473  0.84578621  0.00169245    -1.21800
O1331       O  0.28293061  0.84462187  0.74568858    -0.84100
O1332       O  0.31579843  0.81652002  0.68146818    -0.81100
C1333       C  0.31773865  0.83995903  0.66016343     0.99400
O1334       O  0.34668084  0.86068301  0.66562541    -0.81200
O1335       O  0.41275914  0.89678766  0.69494972    -0.83800
C1336       C  0.38882383  0.91621912  0.71294686     1.03900
O1337       O  0.36360850  0.90773427  0.73920937    -0.76600
O1338       O  0.31906787  0.87101450  0.78898531    -0.76800
C1339       C  0.28299827  0.86510272  0.77130952     1.03900
O1340       O  0.34439119  0.81001178  0.79303983    -0.84100
O1341       O  0.38523940  0.78496472  0.72780692    -0.81100
C1342       C  0.40871385  0.78548685  0.69818040     0.99400
O1343       O  0.40137430  0.80643625  0.67513969    -0.81200
O1344       O  0.46250303  0.84317456  0.71297136    -0.83800
C1345       C  0.47649737  0.86354755  0.73557552     1.03900
O1346       O  0.44890159  0.87893275  0.75625267    -0.76600
O1347       O  0.40388834  0.83927758  0.80239630    -0.76700
C1348       C  0.37692036  0.81896755  0.81389239     1.03800
Cr1349     Cr  0.33468403  0.81551535  0.73664803     1.93700
Cr1350     Cr  0.40353685  0.85115334  0.68995240     1.93200
Cr1351     Cr  0.38317193  0.87235395  0.76934861     1.39100
O1352       O  0.37385663  0.84627170  0.73232758    -1.21800
O1353       O  0.04614825  0.89109208  0.00876517    -0.84100
O1354       O  0.12552877  0.86782085  0.97954078    -0.81100
C1355       C  0.12246129  0.86503764  0.94458522     0.99400
O1356       O  0.11757336  0.88877497  0.92469777    -0.81200
O1357       O  0.10462030  0.95219344  0.90918999    -0.83800
C1358       C  0.06220549  0.95031979  0.90910012     1.03900
O1359       O  0.04035632  0.95237419  0.93936226    -0.76600
O1360       O  0.01893258  0.93869434  0.01148125    -0.76800
C1361       C  0.01337373  0.90955739  0.01351313     1.03900
O1362       O  0.09490105  0.92916656  0.05954835    -0.84100
O1363       O  0.17491668  0.90964343  0.02577806    -0.81100
C1364       C  0.20324409  0.90305322  0.00037646     0.99400
O1365       O  0.19318387  0.90572588  0.96672132    -0.81200
O1366       O  0.17600188  0.96776376  0.95797769    -0.83800
C1367       C  0.16547783  0.49753598  0.96650241     1.03900
O1368       O  0.12266259  0.49955564  0.97039334    -0.76600
O1369       O  0.09566950  0.97619997  0.03741451    -0.76700
C1370       C  0.09852107  0.95807725  0.06444942     1.03800
Cr1371     Cr  0.11008480  0.90198948  0.01576829     1.93700
Cr1372     Cr  0.14461285  0.92904177  0.94266013     1.93200
Cr1373     Cr  0.06993727  0.96338988  0.98797942     1.39100
O1374       O  0.10808826  0.93151427  0.98233101    -1.21800
O1375       O  0.22158128  0.91973421  0.18355837    -0.84100
O1376       O  0.18406199  0.88586370  0.24024548    -0.81100
C1377       C  0.16044761  0.87878503  0.26815471     0.99400
O1378       O  0.13478179  0.89866960  0.28400695    -0.81200
O1379       O  0.19247375  0.94296235  0.30792962    -0.83800
C1380       C  0.21888112  0.96561817  0.30949946     1.03900
O1381       O  0.21985013  0.98510095  0.28339162    -0.76600
O1382       O  0.25576597  0.94952842  0.22431926    -0.76800
C1383       C  0.25730274  0.92735260  0.20060544     1.03900
O1384       O  0.13262583  0.94516334  0.17013840    -0.84100
O1385       O  0.09533181  0.90613239  0.22100956    -0.81100
C1386       C  0.06592284  0.92202417  0.23892139     0.99400
O1387       O  0.07686581  0.94605066  0.25680753    -0.81200
O1388       O  0.12817691  0.99145327  0.28828635    -0.83800
C1389       C  0.12091327  0.50316736  0.26932254     1.03900
O1390       O  0.14459969  0.50362101  0.23970292    -0.76600
O1391       O  0.18986712  0.97744873  0.17326409    -0.76700
C1392       C  0.15568849  0.96651861  0.15603252     1.03800
Cr1393     Cr  0.15894293  0.91646689  0.20579692     1.93700
Cr1394     Cr  0.13554603  0.94515951  0.28138235     1.93200
Cr1395     Cr  0.20163085  0.97814865  0.22930552     1.39100
O1396       O  0.16526760  0.94673536  0.23872030    -1.21800
O1397       O  0.76991524  0.85115572  0.24244941    -0.84100
O1398       O  0.80422407  0.81712769  0.18124206    -0.81100
C1399       C  0.81146179  0.83720071  0.15625723     0.99400
O1400       O  0.84425819  0.85538654  0.15857487    -0.81200
O1401       O  0.89932815  0.89731928  0.18959349    -0.83800
C1402       C  0.87240376  0.91699648  0.20472041     1.03900
O1403       O  0.84722648  0.90976529  0.23160024    -0.76600
O1404       O  0.80612745  0.87612460  0.28643569    -0.76800
C1405       C  0.76984062  0.87048833  0.26950074     1.03900
O1406       O  0.82931165  0.81809074  0.29266504    -0.84100
O1407       O  0.86842201  0.78709149  0.23341419    -0.81100
C1408       C  0.89947145  0.78454610  0.20911890     0.99400
O1409       O  0.90147462  0.80401757  0.18315921    -0.81200
O1410       O  0.95211597  0.84666222  0.21931569    -0.83800
C1411       C  0.96334897  0.87031386  0.23761659     1.03900
O1412       O  0.93346074  0.88720624  0.25323867    -0.76600
O1413       O  0.89069237  0.84651960  0.29909444    -0.76700
C1414       C  0.86339635  0.82685871  0.31163567     1.03800
Cr1415     Cr  0.82054330  0.82001078  0.23651468     1.93700
Cr1416     Cr  0.89655667  0.85044451  0.19030507     1.93200
Cr1417     Cr  0.86882816  0.87781090  0.26524909     1.39100
O1418       O  0.86161502  0.84929890  0.23042767    -1.21800
O1419       O  0.01572571  0.84657628  0.47396057    -0.84100
O1420       O  0.98011577  0.80832298  0.52876618    -0.81100
C1421       C  0.97852862  0.82665498  0.55674607     0.99400
O1422       O  0.95311232  0.84999038  0.55667551    -0.81200
O1423       O  0.89621577  0.89591994  0.53646615    -0.83800
C1424       C  0.92118248  0.91612082  0.52139856     1.03900
O1425       O  0.94292299  0.90970930  0.49183615    -0.76600
O1426       O  0.98106608  0.87576550  0.43383537    -0.76800
C1427       C  0.01682002  0.86814258  0.45061987     1.03900
O1428       O  0.95350839  0.81964752  0.42046319    -0.84100
O1429       O  0.91272923  0.78735710  0.47602964    -0.81100
C1430       C  0.88638262  0.78387671  0.50345855     0.99400
O1431       O  0.88841374  0.80250227  0.53132480    -0.81200
O1432       O  0.83720679  0.84935896  0.50541429    -0.83800
C1433       C  0.82574923  0.87395891  0.49016881     1.03900
O1434       O  0.85457806  0.88966465  0.47238504    -0.76600
O1435       O  0.89293077  0.84933903  0.41886495    -0.76700
C1436       C  0.91818799  0.82874407  0.40406099     1.03800
Cr1437     Cr  0.96333266  0.81752468  0.47569699     1.93700
Cr1438     Cr  0.89612436  0.84917153  0.52972629     1.93200
Cr1439     Cr  0.91828627  0.87884739  0.45598968     1.39100
O1440       O  0.92580567  0.84849707  0.48717048    -1.21800
O1441       O  0.78109652  0.56767539  0.48110153    -0.84100
O1442       O  0.81861688  0.59801178  0.54083568    -0.81100
C1443       C  0.81538402  0.57677084  0.56475031     0.99400
O1444       O  0.84262555  0.55422393  0.56394689    -0.81200
O1445       O  0.89983611  0.50949998  0.53350339    -0.83800
C1446       C  0.87540262  0.49070518  0.51559623     1.03900
O1447       O  0.85236856  0.49944617  0.48836175    -0.76600
O1448       O  0.81193211  0.53767389  0.43784724    -0.76800
C1449       C  0.77763875  0.54612161  0.45691604     1.03900
O1450       O  0.84527746  0.59603142  0.42977082    -0.84100
O1451       O  0.89092447  0.62134016  0.49249071    -0.81100
C1452       C  0.91382132  0.62118241  0.52218094     0.99400
O1453       O  0.90703560  0.60056998  0.54588741    -0.81200
O1454       O  0.95974672  0.55516414  0.51001612    -0.83800
C1455       C  0.96943795  0.53429622  0.48596374     1.03900
O1456       O  0.93936812  0.52139745  0.46642630    -0.76600
O1457       O  0.90050801  0.56295188  0.41987489    -0.76700
C1458       C  0.87594204  0.58457787  0.40833721     1.03800
Cr1459     Cr  0.83661036  0.59381199  0.48636784     1.93700
Cr1460     Cr  0.89987043  0.55547943  0.53508822     1.93200
Cr1461     Cr  0.87561653  0.53261615  0.45587335     1.39100
O1462       O  0.87090676  0.56057710  0.49235021    -1.21800
O1463       O  0.00767807  0.57510909  0.22876103    -0.84100
O1464       O  0.96463329  0.59777699  0.17023744    -0.81100
C1465       C  0.96772492  0.57370269  0.14869243     0.99400
O1466       O  0.94225452  0.55097389  0.15341817    -0.81200
O1467       O  0.88692630  0.50866278  0.18417364    -0.83800
C1468       C  0.91725799  0.49150848  0.19737820     1.03900
O1469       O  0.94342497  0.50231410  0.22168243    -0.76600
O1470       O  0.98583053  0.54159562  0.27046782    -0.76800
C1471       C  0.01675154  0.55361789  0.25049137     1.10300
O1472       O  0.94422661  0.60098654  0.28369630    -0.84100
O1473       O  0.89242105  0.62260444  0.22309874    -0.81100
C1474       C  0.86833296  0.62082317  0.19422423     0.99400
O1475       O  0.87757514  0.60003796  0.17001241    -0.81200
O1476       O  0.83107549  0.55839148  0.21108312    -0.83800
C1477       C  0.82271071  0.53697316  0.23310438     1.03900
O1478       O  0.85435947  0.52227968  0.24912075    -0.76600
O1479       O  0.89630449  0.56364309  0.29568170    -0.76700
C1480       C  0.91792766  0.58714924  0.30645637     1.03800
Cr1481     Cr  0.94976149  0.59738825  0.22638020     1.93700
Cr1482     Cr  0.88680198  0.55524153  0.18226285     1.93200
Cr1483     Cr  0.91998024  0.53447221  0.25709306     1.39100
O1484       O  0.91888143  0.56250029  0.22246896    -1.21800
O1485       O  0.06812091  0.01762443  0.72152550    -0.84100
O1486       O  0.14899472  0.53219113  0.74618685    -0.81100
C1487       C  0.14101760  0.53536674  0.78068808     0.99400
O1488       O  0.13083049  0.51242857  0.80044919    -0.81200
O1489       O  0.11587931  0.95335559  0.81560855    -0.83800
C1490       C  0.07347745  0.95504659  0.81248305     1.03900
O1491       O  0.05563751  0.95235858  0.78093782    -0.76600
O1492       O  0.04150125  0.97070900  0.71054544    -0.76800
C1493       C  0.03551097  0.99988204  0.71396593     1.03900
O1494       O  0.11632169  0.98196644  0.66661135    -0.84100
O1495       O  0.20501238  0.48909256  0.70597567    -0.81100
C1496       C  0.22470335  0.00141404  0.72794219     0.99400
O1497       O  0.21290292  0.99750108  0.76144930    -0.81200
O1498       O  0.19173723  0.93727976  0.76956661    -0.83800
C1499       C  0.17330310  0.91170144  0.76219215     1.03900
O1500       O  0.13120094  0.91036873  0.75478428    -0.76600
O1501       O  0.12053772  0.93383370  0.68445563    -0.76700
C1502       C  0.12269911  0.95362201  0.65905411     1.03800
Cr1503     Cr  0.13188425  0.00614825  0.71241216     1.93700
Cr1504     Cr  0.16076112  0.97561568  0.78439006     1.93200
Cr1505     Cr  0.09006258  0.94377221  0.73360873     1.39100
O1506       O  0.12771951  0.97496848  0.74337120    -1.21800
O1507       O  0.24066738  0.00009750  0.52645690    -0.84100
O1508       O  0.20383764  0.53563344  0.49213144    -0.81100
C1509       C  0.17691929  0.54506250  0.46773525     0.99400
O1510       O  0.14995556  0.52651384  0.45226791    -0.81200
O1511       O  0.19296793  0.97615767  0.40982758    -0.83800
C1512       C  0.21931224  0.95328492  0.40628555     1.03900
O1513       O  0.22100302  0.93303426  0.43150661    -0.76600
O1514       O  0.26528712  0.96641293  0.48432442    -0.76800
C1515       C  0.27227533  0.98938799  0.50552163     1.03900
O1516       O  0.15457118  0.97566678  0.55398468    -0.84100
O1517       O  0.11957638  0.51495269  0.52251433    -0.81100
C1518       C  0.07593640  0.99716961  0.49380330     0.99400
O1519       O  0.08457172  0.97392247  0.47326504    -0.81200
O1520       O  0.13216231  0.92816424  0.43662808    -0.83800
C1521       C  0.13060214  0.90930226  0.46323391     1.03900
O1522       O  0.15822697  0.91202747  0.48954608    -0.76600
O1523       O  0.20865467  0.94146395  0.54376332    -0.76700
C1524       C  0.17786171  0.95314753  0.56479786     1.03800
Cr1525     Cr  0.17405908  0.00348974  0.51421165     1.93700
Cr1526     Cr  0.13943135  0.97452715  0.44230577     1.93200
Cr1527     Cr  0.21084665  0.94028963  0.48700849     1.39100
O1528       O  0.17467335  0.97273629  0.48144421    -1.21800
O1529       O  0.73544316  0.99935296  0.04978564    -0.84100
O1530       O  0.68708318  0.52675719  0.98177557    -0.81100
C1531       C  0.66352589  0.53422333  0.95436244     0.99400
O1532       O  0.64170515  0.51400454  0.93645478    -0.81200
O1533       O  0.68420639  0.97107420  0.93431183    -0.83800
C1534       C  0.70804892  0.94680573  0.93309739     1.03900
O1535       O  0.70768477  0.92835081  0.95999432    -0.76600
O1536       O  0.75651077  0.96358937  0.00905557    -0.76800
C1537       C  0.76579461  0.98713385  0.02889052     1.03900
O1538       O  0.64678751  0.98068371  0.07804046    -0.84100
O1539       O  0.59920871  0.50375922  0.00033256    -0.81100
C1540       C  0.57140142  0.00557305  0.01777740     0.99400
O1541       O  0.57616904  0.98097757  0.99829891    -0.81200
O1542       O  0.61745877  0.92928432  0.96525498    -0.83800
C1543       C  0.61573509  0.91086125  0.99227894     1.03900
O1544       O  0.64341411  0.91394038  0.01869033    -0.76600
O1545       O  0.69770352  0.94398972  0.07015222    -0.76700
C1546       C  0.66711668  0.95725377  0.08973486     1.03800
Cr1547     Cr  0.66965361  0.00585100  0.03713184     1.93700
Cr1548     Cr  0.63101762  0.97515632  0.96722947     1.93200
Cr1549     Cr  0.69912534  0.93979210  0.01411584     1.39100
O1550       O  0.66634766  0.97361624  0.00631295    -1.21800
O1551       O  0.54290018  0.00322101  0.22087378    -0.84100
O1552       O  0.60503237  0.53185288  0.25080347    -0.81100
C1553       C  0.63142168  0.53802364  0.27719111     0.99400
O1554       O  0.65654671  0.51716237  0.29039405    -0.81200
O1555       O  0.59358570  0.97538778  0.33580315    -0.83800
C1556       C  0.56652872  0.95300968  0.33724236     1.03900
O1557       O  0.56370976  0.93375182  0.31012182    -0.76600
O1558       O  0.51869402  0.96985443  0.26172911    -0.76800
C1559       C  0.51104592  0.99185176  0.24037321     1.03900
O1560       O  0.62985447  0.97994972  0.19300588    -0.84100
O1561       O  0.68818294  0.50593097  0.22292754    -0.81100
C1562       C  0.70759938  0.99950875  0.25281270     0.99400
O1563       O  0.69893534  0.97511891  0.26963029    -0.81200
O1564       O  0.65402214  0.92833391  0.30161057    -0.83800
C1565       C  0.65356736  0.91077033  0.27270900     1.03900
O1566       O  0.62387775  0.91461843  0.24849909    -0.76600
O1567       O  0.57406472  0.94688826  0.19933981    -0.76700
C1568       C  0.60623042  0.95813750  0.18017467     1.03800
Cr1569     Cr  0.60940050  0.00680139  0.23430023     1.93700
Cr1570     Cr  0.64562901  0.97504402  0.30201524     1.93200
Cr1571     Cr  0.57240924  0.94328996  0.25555707     1.39100
O1572       O  0.60902767  0.97505387  0.26392839    -1.21800
O1573       O  0.27428776  0.56438493  0.98520357    -0.84100
O1574       O  0.30878094  0.59640507  0.04685605    -0.81100
C1575       C  0.30990735  0.57601761  0.07186802     0.99400
O1576       O  0.33374670  0.55204509  0.06714509    -0.81200
O1577       O  0.39480545  0.50978489  0.03899223    -0.83800
C1578       C  0.37142887  0.49067544  0.02043911     1.03900
O1579       O  0.34809309  0.49933822  0.99338707    -0.76600
O1580       O  0.31079420  0.53797265  0.94157385    -0.76800
C1581       C  0.27456147  0.54397651  0.95938809     1.03900
O1582       O  0.33946844  0.59527583  0.93681795    -0.84100
O1583       O  0.37934541  0.62161168  0.99915957    -0.81100
C1584       C  0.40281874  0.62184001  0.02840253     0.99400
O1585       O  0.39648129  0.60143514  0.05255685    -0.81200
O1586       O  0.45248485  0.55859789  0.01755257    -0.83800
C1587       C  0.46472233  0.53697757  0.99555258     1.03900
O1588       O  0.43601045  0.52217945  0.97640688    -0.76600
O1589       O  0.39903871  0.56497322  0.93113409    -0.76700
C1590       C  0.37473737  0.58639936  0.91892410     1.03800
Cr1591     Cr  0.32747867  0.59250331  0.99245774     1.93700
Cr1592     Cr  0.39213976  0.55594572  0.04135261     1.93200
Cr1593     Cr  0.37267153  0.53308165  0.96287331     1.39100
O1594       O  0.36411819  0.56047798  0.99888852    -1.21800
O1595       O  0.52418290  0.57855805  0.74735096    -0.84100
O1596       O  0.47487930  0.61112417  0.69774841    -0.81100
C1597       C  0.47573413  0.59139127  0.67113190     0.99400
O1598       O  0.45293787  0.56693656  0.67302265    -0.81200
O1599       O  0.40433040  0.51798755  0.69908556    -0.83800
C1600       C  0.43314463  0.49909243  0.71128180     1.03900
O1601       O  0.46048755  0.50757571  0.73611709    -0.76600
O1602       O  0.50395255  0.54423723  0.78826746    -0.76800
C1603       C  0.53406740  0.55598150  0.76743664     1.03900
O1604       O  0.46498109  0.60005638  0.80840475    -0.84100
O1605       O  0.41012442  0.62770121  0.75646579    -0.81100
C1606       C  0.38220860  0.62949136  0.73017667     0.99400
O1607       O  0.38459650  0.61013559  0.70305008    -0.81200
O1608       O  0.34415237  0.55952485  0.73507580    -0.83800
C1609       C  0.34007628  0.53589766  0.75486335     1.03900
O1610       O  0.37412320  0.52283502  0.76895547    -0.76600
O1611       O  0.41482520  0.56336967  0.81638834    -0.76700
C1612       C  0.43535375  0.58693797  0.82838916     1.03800
Cr1613     Cr  0.46633875  0.60206114  0.75213707     1.93700
Cr1614     Cr  0.39943567  0.56427194  0.70514656     1.93200
Cr1615     Cr  0.43830929  0.53686043  0.77548783     1.39100
O1616       O  0.43425413  0.56778769  0.74454867    -1.21800
O1617       O  0.23871384  0.74489817  0.02853465    -0.84100
O1618       O  0.19560291  0.77806383  0.97433359    -0.81100
C1619       C  0.16888295  0.78551484  0.94888312     0.99400
O1620       O  0.14018767  0.76600435  0.93695877    -0.81200
O1621       O  0.19171964  0.71563512  0.91349579    -0.83800
C1622       C  0.21534750  0.69127481  0.91303595     1.03900
O1623       O  0.21337829  0.67274064  0.93990976    -0.76600
O1624       O  0.26108996  0.70805088  0.98938216    -0.76800
C1625       C  0.27001507  0.73131395  0.00970970     1.03900
O1626       O  0.14974469  0.72682031  0.05632070    -0.84100
O1627       O  0.10828332  0.76430419  0.00543208    -0.81100
C1628       C  0.07561733  0.74867391  0.99219649     0.99400
O1629       O  0.08236827  0.72363269  0.97466027    -0.81200
O1630       O  0.12437993  0.67339303  0.94356847    -0.83800
C1631       C  0.12024470  0.65635491  0.97179259     1.03900
O1632       O  0.14743789  0.65964612  0.99847503    -0.76600
O1633       O  0.20168491  0.69054859  0.04981407    -0.76700
C1634       C  0.17235287  0.70493342  0.06960876     1.03800
Cr1635     Cr  0.17308360  0.75117021  0.01439694     1.93700
Cr1636     Cr  0.13739167  0.71941113  0.94462694     1.93200
Cr1637     Cr  0.20357291  0.68488995  0.99384876     1.39100
O1638       O  0.17129697  0.71852928  0.98448636    -1.21800
O1639       O  0.05519229  0.75286420  0.19167556    -0.84100
O1640       O  0.09121575  0.79065634  0.24549013    -0.81100
C1641       C  0.11233233  0.79976951  0.27379187     0.99400
O1642       O  0.13509385  0.78092759  0.29242974    -0.81200
O1643       O  0.07193329  0.73762099  0.31392088    -0.83800
C1644       C  0.05271457  0.71206688  0.31873955     1.03900
O1645       O  0.05371297  0.69158865  0.29283191    -0.76600
O1646       O  0.01862825  0.72371910  0.23149561    -0.76800
C1647       C  0.01828699  0.74471587  0.20710081     1.03900
O1648       O  0.14463979  0.72552662  0.17996784    -0.84100
O1649       O  0.18123917  0.76683957  0.23009645    -0.81100
C1650       C  0.20871298  0.75212683  0.25034725     0.99400
O1651       O  0.19485931  0.73185356  0.27222042    -0.81200
O1652       O  0.13861805  0.68913821  0.30143861    -0.83800
C1653       C  0.15008226  0.66951843  0.27654071     1.03900
O1654       O  0.12856680  0.66876767  0.24602426    -0.76600
O1655       O  0.08613377  0.69468618  0.18348737    -0.76700
C1656       C  0.11991174  0.70497446  0.16555640     1.03800
Cr1657     Cr  0.11746591  0.75697613  0.21399224     1.93700
Cr1658     Cr  0.13290165  0.73451946  0.29226534     1.93200
Cr1659     Cr  0.07374907  0.69656794  0.23905670     1.39100
O1660       O  0.10824754  0.72937968  0.24818087    -1.21800
O1661       O  0.77663396  0.80299662  0.98171453    -0.84100
O1662       O  0.80728967  0.84003192  0.03849551    -0.81100
C1663       C  0.81483414  0.81946296  0.06290436     0.99400
O1664       O  0.84918930  0.80236783  0.06026672    -0.81200
O1665       O  0.91804297  0.76735634  0.03211877    -0.83800
C1666       C  0.89600606  0.74459357  0.01939081     1.03900
O1667       O  0.86686760  0.74834356  0.99450065    -0.76600
O1668       O  0.81395793  0.77418241  0.94072885    -0.76800
C1669       C  0.77780482  0.78046334  0.95878465     1.03900
O1670       O  0.82930858  0.83567337  0.92572732    -0.84100
O1671       O  0.86714531  0.87132610  0.98232849    -0.81100
C1672       C  0.89411059  0.87613684  0.00876006     0.99400
O1673       O  0.89286158  0.85821371  0.03608322    -0.81200
O1674       O  0.95637209  0.82127152  0.00009959    -0.83800
C1675       C  0.97204985  0.79839190  0.98196733     1.03900
O1676       O  0.94572651  0.77893337  0.96642384    -0.76600
O1677       O  0.89277090  0.80945677  0.91813320    -0.76700
C1678       C  0.86319462  0.82725079  0.90554311     1.03800
Cr1679     Cr  0.82297025  0.83622619  0.98267470     1.93700
Cr1680     Cr  0.90157573  0.81246884  0.02960662     1.93200
Cr1681     Cr  0.87886468  0.77979671  0.95688567     1.39100
O1682       O  0.86767109  0.80952608  0.98948401    -1.21800
O1683       O  0.01352881  0.82030376  0.73470125    -0.84100
O1684       O  0.96776574  0.85077765  0.68113361    -0.81100
C1685       C  0.97253505  0.83100306  0.65479750     0.99400
O1686       O  0.95150918  0.80569549  0.65556499    -0.81200
O1687       O  0.90267265  0.75580060  0.67951938    -0.83800
C1688       C  0.93076609  0.73793562  0.69434929     1.03900
O1689       O  0.95462043  0.74748367  0.72108990    -0.76600
O1690       O  0.99125059  0.78596910  0.77487602    -0.76800
C1691       C  0.02250311  0.79790641  0.75537363     1.03900
O1692       O  0.94743125  0.84113745  0.79111731    -0.84100
O1693       O  0.89624597  0.86631630  0.73444166    -0.81100
C1694       C  0.87142441  0.86635589  0.70592997     0.99400
O1695       O  0.87823531  0.84667436  0.67982172    -0.81200
O1696       O  0.83674354  0.79568426  0.71066062    -0.83800
C1697       C  0.83163402  0.77276860  0.73166172     1.03900
O1698       O  0.86498805  0.76090157  0.74809175    -0.76600
O1699       O  0.89877349  0.80335976  0.79756136    -0.76700
C1700       C  0.91740082  0.82750032  0.81021667     1.03800
Cr1701     Cr  0.95416851  0.84226075  0.73498007     1.93700
Cr1702     Cr  0.89489972  0.80168409  0.68429718     1.93200
Cr1703     Cr  0.92742046  0.77678040  0.75830708     1.39100
O1704       O  0.92498277  0.80695025  0.72613397    -1.21800
O1705       O  0.54126261  0.74720549  0.69565828    -0.84100
O1706       O  0.59047572  0.78107509  0.74788592    -0.81100
C1707       C  0.62085472  0.78814937  0.77090133     0.99400
O1708       O  0.65014285  0.76831452  0.77987327    -0.81200
O1709       O  0.60072642  0.72070275  0.80766014    -0.83800
C1710       C  0.57546194  0.69743208  0.80996946     1.03900
O1711       O  0.57239510  0.67817099  0.78288188    -0.76600
O1712       O  0.52192330  0.71160965  0.73534628    -0.76800
C1713       C  0.51145039  0.73415336  0.71558475     1.03900
O1714       O  0.62707519  0.72735334  0.66319705    -0.84100
O1715       O  0.67347766  0.76500249  0.70948145    -0.81100
C1716       C  0.70796497  0.75002306  0.71982597     0.99400
O1717       O  0.70377768  0.72564709  0.73847996    -0.81200
O1718       O  0.66250692  0.67589982  0.77302117    -0.83800
C1719       C  0.66145180  0.65712468  0.74540319     1.03900
O1720       O  0.63226574  0.66055957  0.72055024    -0.76600
O1721       O  0.57714345  0.69049535  0.67176999    -0.76700
C1722       C  0.60580775  0.70412610  0.65127289     1.03800
Cr1723     Cr  0.60797316  0.75277854  0.70600763     1.93700
Cr1724     Cr  0.65122296  0.72217564  0.77229438     1.93200
Cr1725     Cr  0.57832680  0.68746023  0.72807351     1.39100
O1726       O  0.61263427  0.72074851  0.73521719    -1.21800
O1727       O  0.73901868  0.75025270  0.53711926    -0.84100
O1728       O  0.70578202  0.79094129  0.48562893    -0.81100
C1729       C  0.68419854  0.80102118  0.45828851     0.99400
O1730       O  0.65905069  0.78313605  0.43942621    -0.81200
O1731       O  0.71244862  0.73484632  0.41304813    -0.83800
C1732       C  0.73254911  0.70920637  0.40943508     1.03900
O1733       O  0.72847743  0.68901406  0.43427348    -0.76600
O1734       O  0.76933171  0.72035660  0.49351163    -0.76800
C1735       C  0.77342491  0.74140204  0.51845807     1.03900
O1736       O  0.64706676  0.72933230  0.55019456    -0.84100
O1737       O  0.61544888  0.77352326  0.50453518    -0.81100
C1738       C  0.58467736  0.76105088  0.48534325     0.99400
O1739       O  0.59321111  0.74002593  0.46149245    -0.81200
O1740       O  0.63943096  0.69143416  0.42950799    -0.83800
C1741       C  0.62984769  0.67196901  0.45438867     1.03900
O1742       O  0.65442124  0.67066238  0.48309651    -0.76600
O1743       O  0.70135340  0.69491387  0.54371417    -0.76700
C1744       C  0.66770170  0.70591778  0.56175337     1.03800
Cr1745     Cr  0.67724516  0.75892382  0.51700325     1.93700
Cr1746     Cr  0.65350031  0.73671606  0.43857787     1.93200
Cr1747     Cr  0.71155519  0.69591493  0.48818756     1.39100
O1748       O  0.68041642  0.73056691  0.48133858    -1.21800
O1749       O  0.28325084  0.82309570  0.46082821    -0.84100
O1750       O  0.30156438  0.83961876  0.53290300    -0.81100
C1751       C  0.32233606  0.83665225  0.56313495     0.99400
O1752       O  0.36450971  0.84056519  0.56339394    -0.81200
O1753       O  0.37495859  0.77773830  0.55211388    -0.83800
C1754       C  0.38039697  0.75245009  0.53472849     1.03900
O1755       O  0.38329900  0.75150765  0.49961848    -0.76600
O1756       O  0.30407238  0.77537592  0.47270293    -0.76800
C1757       C  0.27377294  0.79459620  0.46458246     1.03900
O1758       O  0.36401835  0.85545756  0.43470534    -0.84100
O1759       O  0.37909220  0.87947731  0.50655613    -0.81100
C1760       C  0.42167422  0.87679367  0.51177019     0.99400
O1761       O  0.43918470  0.85035978  0.51469061    -0.81200
O1762       O  0.45250468  0.78855037  0.50714403    -0.83800
C1763       C  0.46245008  0.78382111  0.47322789     1.03900
O1764       O  0.43326797  0.78710777  0.44825926    -0.76600
O1765       O  0.35389033  0.80705233  0.41629974    -0.76700
C1766       C  0.36296224  0.83491042  0.40891262     1.03800
Cr1767     Cr  0.33445920  0.84766369  0.48454862     1.93700
Cr1768     Cr  0.40508509  0.81447026  0.53155863     1.93200
Cr1769     Cr  0.36843992  0.78272710  0.46137331     1.39100
O1770       O  0.36982015  0.81513949  0.49207410    -1.21800
O1771       O  0.50820269  0.82623989  0.23437388    -0.84100
O1772       O  0.46567747  0.85947481  0.18200543    -0.81100
C1773       C  0.46824247  0.83865146  0.15643220     0.99400
O1774       O  0.43845890  0.81779097  0.15433624    -0.81200
O1775       O  0.38138331  0.77130775  0.18153750    -0.83800
C1776       C  0.40743219  0.75091785  0.19482789     1.03900
O1777       O  0.43544898  0.75860502  0.21936556    -0.76600
O1778       O  0.48243365  0.79113958  0.27234858    -0.76800
C1779       C  0.51484589  0.80250058  0.25344570     1.03900
O1780       O  0.44772548  0.85098907  0.29317966    -0.84100
O1781       O  0.39894413  0.88054176  0.23866972    -0.81100
C1782       C  0.37197237  0.88372418  0.21195777     0.99400
O1783       O  0.37496448  0.86523678  0.18397539    -0.81200
O1784       O  0.32799512  0.81901680  0.21648036    -0.83800
C1785       C  0.31842713  0.79627872  0.23628171     1.03900
O1786       O  0.34938954  0.77959915  0.25011353    -0.76600
O1787       O  0.39503278  0.81591141  0.29996285    -0.76700
C1788       C  0.41714091  0.83847455  0.31295468     1.03800
Cr1789     Cr  0.45260624  0.85226520  0.23648236     1.93700
Cr1790     Cr  0.38366398  0.81857999  0.18663959     1.93200
Cr1791     Cr  0.41587164  0.78872391  0.25838917     1.39100
O1792       O  0.41745432  0.81981978  0.22731325    -1.21800
C1793       C  0.36829059  0.84207967  0.36898327    -0.15200
C1794       C  0.40867012  0.84817313  0.35259028    -0.30300
H1795       H  0.34113182  0.83346098  0.35140780     0.13900
H1796       H  0.43702982  0.85606431  0.36928068     0.14400
C1797       C  0.53890599  0.77225669  0.49117522    -0.15200
C1798       C  0.50804136  0.77256397  0.46411880    -0.30300
H1799       H  0.53129660  0.78226041  0.51855600     0.13900
H1800       H  0.51622335  0.76432012  0.43606651     0.14400
C1801       C  0.61335063  0.69529048  0.61206793    -0.15200
C1802       C  0.65616618  0.69440300  0.59880269    -0.30300
H1803       H  0.58500240  0.69741292  0.59322700     0.13900
H1804       H  0.68413771  0.69124102  0.61783710     0.14400
C1805       C  0.78723163  0.75803467  0.73611045    -0.15200
C1806       C  0.75285011  0.76340584  0.71305970    -0.30300
H1807       H  0.78313026  0.74163335  0.75845681     0.13900
H1808       H  0.75652108  0.78016920  0.69107806     0.14400
C1809       C  0.90823003  0.83711360  0.84931458    -0.15200
C1810       C  0.86692147  0.83445664  0.86554934    -0.30300
H1811       H  0.93759486  0.84170918  0.86656223     0.13900
H1812       H  0.83697861  0.83146438  0.84852422     0.14400
C1813       C  0.25695471  0.76004661  0.25038679    -0.15200
C1814       C  0.27056923  0.78809589  0.23982400    -0.30300
H1815       H  0.28125096  0.74311310  0.26014210     0.13900
H1816       H  0.24581628  0.80493951  0.23055785     0.14400
C1817       C  0.01976783  0.79016602  0.98574995    -0.15200
C1818       C  0.02960136  0.76054552  0.99314322    -0.30300
H1819       H  0.04593506  0.80779836  0.98432441     0.13900
H1820       H  0.00266946  0.74342119  0.99451164     0.14400
C1821       C  0.16771194  0.69881451  0.10954970    -0.15200
C1822       C  0.12671836  0.69674027  0.12590289    -0.30300
H1823       H  0.19800132  0.70049837  0.12640614     0.13900
H1824       H  0.09675839  0.69347459  0.10893503     0.14400
C1825       C  0.38456485  0.59732094  0.88118852    -0.15200
C1826       C  0.42717091  0.59652575  0.86734964    -0.30300
H1827       H  0.35607290  0.59939372  0.86245909     0.13900
H1828       H  0.45584756  0.59566503  0.88603681     0.14400
C1829       C  0.52392245  0.49888545  0.98047497    -0.15200
C1830       C  0.51197190  0.52689808  0.99469278    -0.30300
H1831       H  0.51951828  0.03517938  0.04589976     0.13900
H1832       H  0.53692578  0.54200435  0.00767613     0.14400
C1833       C  0.65740872  0.94778865  0.12791064    -0.15200
C1834       C  0.61461350  0.94853350  0.14133713    -0.30300
H1835       H  0.68584373  0.94640956  0.14680296     0.13900
H1836       H  0.58605972  0.94860091  0.12247846     0.14400
C1837       C  0.29601628  0.52141151  0.75898371    -0.15200
C1838       C  0.27392583  0.51004739  0.72910855    -0.30300
H1839       H  0.28313068  0.51817921  0.78704539     0.13900
H1840       H  0.28066940  0.01781396  0.69187649     0.14400
C1841       C  0.12901457  0.94493529  0.61942962    -0.15200
C1842       C  0.17058469  0.94266398  0.60352847    -0.30300
H1843       H  0.10047928  0.95024714  0.60172577     0.13900
H1844       H  0.20006050  0.93814317  0.62047613     0.14400
C1845       C  0.76505296  0.49727739  0.23737388    -0.15200
C1846       C  0.77595990  0.52721645  0.23580273    -0.30300
H1847       H  0.79089352  0.47957393  0.24102184     0.13900
H1848       H  0.74993502  0.54466710  0.23161182     0.14400
C1849       C  0.04179796  0.51758477  0.51100454    -0.15200
C1850       C  0.01539697  0.52229665  0.48167040    -0.30300
H1851       H  0.00282308  0.99053900  0.48885710     0.13900
H1852       H  0.02578417  0.51362121  0.45424977     0.14400
C1853       C  0.87757419  0.59223773  0.36780732    -0.15200
C1854       C  0.91627667  0.59505628  0.34732737    -0.30300
H1855       H  0.84550508  0.59099164  0.35327442     0.13900
H1856       H  0.94836660  0.59798537  0.36148097     0.14400
C1857       C  0.99975444  0.81863080  0.59203786    -0.15200
C1858       C  0.99696016  0.83925479  0.62062361    -0.30300
H1859       H  0.00191508  0.79398232  0.59761643     0.13900
H1860       H  0.99816590  0.86393220  0.61497759     0.14400
C1861       C  0.05871445  0.88573797  0.44285714    -0.15200
C1862       C  0.09524568  0.88501826  0.46486998    -0.30300
H1863       H  0.05711025  0.90276480  0.42102589     0.13900
H1864       H  0.09620758  0.86895428  0.48774827     0.14400
C1865       C  0.92078747  0.94848186  0.53527973    -0.15200
C1866       C  0.88132249  0.96271370  0.54392711    -0.30300
H1867       H  0.95063185  0.96245772  0.52985540     0.13900
H1868       H  0.85025125  0.94925007  0.54447548     0.14400
C1869       C  0.81694726  0.75756952  0.52609389    -0.15200
C1870       C  0.85148206  0.75894503  0.50142060    -0.30300
H1871       H  0.81735990  0.77303758  0.55035445     0.13900
H1872       H  0.85043272  0.74455003  0.47627068     0.14400
C1873       C  0.78505931  0.83935861  0.12167660    -0.15200
C1874       C  0.78738309  0.81578570  0.09716720    -0.30300
H1875       H  0.78446772  0.86249945  0.11013813     0.13900
H1876       H  0.78930138  0.79268039  0.10870857     0.14400
C1877       C  0.72894846  0.88783650  0.28238763    -0.15200
C1878       C  0.68884074  0.88674465  0.26531814    -0.30300
H1879       H  0.73360549  0.90460867  0.30502794     0.13900
H1880       H  0.68434480  0.87088592  0.24176076     0.14400
C1881       C  0.87631170  0.94979630  0.19676060    -0.15200
C1882       C  0.91255184  0.96452520  0.21046795    -0.30300
H1883       H  0.84540242  0.96263736  0.19127337     0.13900
H1884       H  0.94132768  0.95117805  0.21982684     0.14400
C1885       C  0.86870067  0.81832050  0.35065832    -0.15200
C1886       C  0.91030052  0.81867669  0.36546892    -0.30300
H1887       H  0.83872281  0.81857224  0.36848185     0.13900
H1888       H  0.93997502  0.81678444  0.34735352     0.14400
C1889       C  0.93536440  0.76007261  0.21349592    -0.15200
C1890       C  0.97604025  0.76151632  0.19593347    -0.30300
H1891       H  0.93096205  0.74363744  0.23573020     0.13900
H1892       H  0.98044591  0.77889108  0.17473326     0.14400
C1893       C  0.24241277  0.97114705  0.34492841    -0.15200
C1894       C  0.24255716  0.94833485  0.37017717    -0.30300
H1895       H  0.24369325  0.99522006  0.35446809     0.13900
H1896       H  0.24484038  0.92429671  0.36053281     0.14400
C1897       C  0.06388859  0.54177406  0.25018255    -0.15200
C1898       C  0.07865910  0.52131307  0.27470005    -0.30300
H1899       H  0.08588706  0.54824533  0.22719988     0.13900
H1900       H  0.05696848  0.51542204  0.29811923     0.14400
C1901       C  0.01996697  0.91058536  0.24287329    -0.15200
C1902       C  0.01011146  0.88075559  0.23582949    -0.30300
H1903       H  0.99444490  0.92647859  0.25408448     0.13900
H1904       H  0.03588257  0.86466498  0.22529519     0.14400
C1905       C  0.29949655  0.90887109  0.19249011    -0.15200
C1906       C  0.33602427  0.90839920  0.21485179    -0.30300
H1907       H  0.29794019  0.89206287  0.16958950     0.13900
H1908       H  0.33683312  0.92414872  0.23882646     0.14400
C1909       C  0.15732797  0.84620028  0.27823892    -0.15200
C1910       C  0.11626815  0.83304227  0.28119883    -0.30300
H1911       H  0.18732056  0.83167920  0.27452343     0.13900
H1912       H  0.08582947  0.84722078  0.27964631     0.14400
C1913       C  0.04656923  0.96389216  0.84582258    -0.15200
C1914       C  0.04047929  0.94368110  0.87314021    -0.30300
H1915       H  0.05016715  0.98818305  0.85400163     0.13900
H1916       H  0.03871473  0.91918575  0.86552050     0.14400
C1917       C  0.96948807  0.89580544  0.02429812    -0.15200
C1918       C  0.93058194  0.89973292  0.00564895    -0.30300
H1919       H  0.97169454  0.87695175  0.04381684     0.13900
H1920       H  0.92914762  0.91640888  0.98344347     0.14400
C1921       C  0.12927237  0.83339803  0.92866745    -0.15200
C1922       C  0.16778984  0.81844776  0.93795405    -0.30300
H1923       H  0.09949228  0.82035129  0.92035141     0.13900
H1924       H  0.19598983  0.83244007  0.94787305     0.14400
C1925       C  0.10377689  0.96938574  0.10314186    -0.15200
C1926       C  0.14499858  0.97561785  0.11740696    -0.30300
H1927       H  0.07685735  0.96253458  0.12211041     0.13900
H1928       H  0.17291633  0.98170086  0.09905143     0.14400
C1929       C  0.19473528  0.52540713  0.96841951    -0.15200
C1930       C  0.23480526  0.52471096  0.95023478    -0.30300
H1931       H  0.18610868  0.54433074  0.98764961     0.13900
H1932       H  0.24122560  0.50588247  0.93021242     0.14400
C1933       C  0.29114142  0.84315354  0.62585479    -0.15200
C1934       C  0.30051656  0.82414634  0.59693475    -0.30300
H1935       H  0.28269988  0.86698899  0.61924601     0.13900
H1936       H  0.31170059  0.80082495  0.60338514     0.14400
C1937       C  0.44825227  0.76498245  0.69143989    -0.15200
C1938       C  0.46438392  0.74603142  0.71726571    -0.30300
H1939       H  0.46850977  0.76909480  0.66659932     0.13900
H1940       H  0.44416764  0.74128518  0.74192132     0.14400
C1941       C  0.24249480  0.88442170  0.78009299    -0.15200
C1942       C  0.20303540  0.88371007  0.76123291    -0.30300
H1943       H  0.24792616  0.90326225  0.80013188     0.13900
H1944       H  0.19565830  0.86477340  0.74186285     0.14400
C1945       C  0.39445067  0.94909721  0.70629053    -0.15200
C1946       C  0.43625456  0.96116346  0.70333648    -0.30300
H1947       H  0.36513559  0.96417504  0.71066985     0.13900
H1948       H  0.46613758  0.94638779  0.70389702     0.14400
C1949       C  0.51232863  0.82526719  0.09719524    -0.15200
C1950       C  0.50949500  0.83663086  0.13252161    -0.30300
H1951       H  0.54607332  0.82048515  0.08604557     0.13900
H1952       H  0.54122416  0.84131375  0.14661481     0.14400
C1953       C  0.33019562  0.76367013  0.03669113    -0.15200
C1954       C  0.31693627  0.74358903  0.01005472    -0.30300
H1955       H  0.30769228  0.76786447  0.06044233     0.13900
H1956       H  0.33849903  0.73913834  0.98583210     0.14400
C1957       C  0.27220207  0.87566403  0.98194684    -0.15200
C1958       C  0.24742402  0.89010552  0.00892869    -0.30300
H1959       H  0.25957087  0.87315976  0.95375412     0.13900
H1960       H  0.25985001  0.89272273  0.03716562     0.14400
C1961       C  0.41939967  0.81420864  0.87319178    -0.15200
C1962       C  0.38076887  0.80914749  0.85373104    -0.30300
H1963       H  0.44918935  0.82131028  0.85755595     0.13900
H1964       H  0.34991443  0.80292709  0.86847701     0.14400
C1965       C  0.55115355  0.88163038  0.96524784    -0.15200
C1966       C  0.57999175  0.88653270  0.99361818    -0.30300
H1967       H  0.55604714  0.89425622  0.93969504     0.13900
H1968       H  0.57398143  0.87505493  0.01983628     0.14400
C1969       C  0.38441465  0.94631726  0.04613959    -0.15200
C1970       C  0.34852957  0.95983537  0.03008161    -0.30300
H1971       H  0.40897655  0.95963352  0.06207507     0.13900
H1972       H  0.32462130  0.94563602  0.01442801     0.14400
C1973       C  0.54295792  0.97074810  0.39880927    -0.15200
C1974       C  0.54333673  0.94770097  0.37285643    -0.30300
H1975       H  0.53919805  0.99462439  0.39012490     0.13900
H1976       H  0.54310761  0.92373081  0.38167859     0.14400
C1977       C  0.70072269  0.52882647  0.47658004    -0.15200
C1978       C  0.73469372  0.52894922  0.45122253    -0.30300
H1979       H  0.70186334  0.54468817  0.50044425     0.13900
H1980       H  0.73413387  0.51225849  0.42814869     0.14400
C1981       C  0.77111459  0.91645771  0.49797967    -0.15200
C1982       C  0.78018581  0.88594083  0.49747879    -0.30300
H1983       H  0.79699118  0.93306846  0.49021993     0.13900
H1984       H  0.75437543  0.86949660  0.50575234     0.14400
C1985       C  0.49142683  0.90174500  0.53421196    -0.15200
C1986       C  0.45228205  0.90420515  0.51506614    -0.30300
H1987       H  0.49720065  0.88082812  0.54991362     0.13900
H1988       H  0.44433980  0.92521327  0.50027764     0.14400
C1989       C  0.64126844  0.84877624  0.45305580    -0.15200
C1990       C  0.68210351  0.83469196  0.45260690    -0.30300
H1991       H  0.61081798  0.83462063  0.45301953     0.13900
H1992       H  0.71241439  0.84827933  0.45739650     0.14400
C1993       C  0.73779031  0.96000372  0.87235870    -0.15200
C1994       C  0.73134522  0.93832237  0.89818227    -0.30300
H1995       H  0.74031881  0.98427347  0.88094537     0.13900
H1996       H  0.73119790  0.91385094  0.89021033     0.14400
C1997       C  0.82246864  0.91063420  0.72760871    -0.15200
C1998       C  0.83259760  0.88800995  0.70254204    -0.30300
H1999       H  0.84598029  0.91588896  0.74991894     0.13900
H2000       H  0.80921394  0.88326312  0.67998021     0.14400
C2001       C  0.66877139  0.83316138  0.78200736    -0.15200
C2002       C  0.62688694  0.82071577  0.78233814    -0.30300
H2003       H  0.69819515  0.81844274  0.77646181     0.13900
H2004       H  0.59719589  0.83573459  0.78318668     0.14400
C2005       C  0.53569267  0.90184878  0.74280484    -0.15200
C2006       C  0.52435629  0.87243351  0.73455141    -0.30300
H2007       H  0.50969451  0.91847316  0.75154527     0.13900
H2008       H  0.54983225  0.85552578  0.72558594     0.14400
C2009       C  0.67230779  0.97587723  0.64030436    -0.15200
C2010       C  0.63048488  0.97504544  0.62567611    -0.30300
H2011       H  0.70192401  0.97793215  0.62230630     0.13900
H2012       H  0.60094013  0.97445278  0.64396672     0.14400
C2013       C  0.59465734  0.52128771  0.78929582    -0.15200
C2014       C  0.58046121  0.54240666  0.76504034    -0.30300
H2015       H  0.57345085  0.51653212  0.81340876     0.13900
H2016       H  0.60174111  0.54801940  0.74129236     0.14400
C2017       C  0.04795961  0.72435699  0.38465119    -0.15200
C2018       C  0.04148820  0.70340745  0.35702969    -0.30300
H2019       H  0.04503638  0.74899023  0.37914584     0.13900
H2020       H  0.04221032  0.67878893  0.36300451     0.14400
C2021       C  0.96613629  0.66406273  0.50614206    -0.15200
C2022       C  0.95104605  0.64299077  0.53000409    -0.30300
H2023       H  0.94690702  0.66911472  0.48136328     0.13900
H2024       H  0.97038996  0.63883906  0.55502072     0.14400
C2025       C  0.13168102  0.59011401  0.45026929    -0.15200
C2026       C  0.17224257  0.57838105  0.46036038    -0.30300
H2027       H  0.10308182  0.57475007  0.44554950     0.13900
H2028       H  0.19919277  0.59387732  0.46931381     0.14400
C2029       C  0.22818676  0.78251141  0.45681167    -0.15200
C2030       C  0.19916116  0.77637925  0.48470889    -0.30300
H2031       H  0.22236188  0.77281610  0.42915262     0.13900
H2032       H  0.20583527  0.78568140  0.51244885     0.14400
C2033       C  0.24391152  0.70462356  0.85254021    -0.15200
C2034       C  0.24009316  0.68297361  0.87875414    -0.30300
H2035       H  0.24867207  0.72874229  0.86105709     0.13900
H2036       H  0.23920929  0.65853637  0.87065020     0.14400
C2037       C  0.06912985  0.78451762  0.75479531    -0.15200
C2038       C  0.08101435  0.76165102  0.77763432    -0.30300
H2039       H  0.09228889  0.79131771  0.73276121     0.13900
H2040       H  0.05772639  0.75546051  0.79988473     0.14400
C2041       C  0.31394620  0.65559391  0.70536437    -0.15200
C2042       C  0.34572422  0.65362146  0.73192679    -0.30300
H2043       H  0.31727563  0.64078813  0.68063745     0.13900
H2044       H  0.34210373  0.66758983  0.75729807     0.14400
C2045       C  0.18437163  0.58172978  0.78139459    -0.15200
C2046       C  0.14922998  0.56623725  0.79647419    -0.30300
H2047       H  0.21182541  0.56868684  0.76785527     0.13900
H2048       H  0.12114322  0.57828914  0.81026271     0.14400
C2049       C  0.15371387  0.71988247  0.62766462    -0.15200
C2050       C  0.11125049  0.71713897  0.61467978    -0.30300
H2051       H  0.18156072  0.72468476  0.60862869     0.13900
H2052       H  0.08316004  0.71317914  0.63377383     0.14400
C2053       C  0.49629427  0.57721871  0.60769120    -0.15200
C2054       C  0.49759490  0.59853008  0.63557294    -0.30300
H2055       H  0.49755999  0.55266753  0.61399507     0.13900
H2056       H  0.49973718  0.62303263  0.62917914     0.14400
C2057       C  0.33435632  0.52704778  0.52988713    -0.15200
C2058       C  0.31743197  0.00420488  0.50419097    -0.30300
H2059       H  0.31135133  0.53308201  0.55274082     0.13900
H2060       H  0.34742882  0.49503653  0.48591299     0.14400
C2061       C  0.57342696  0.63080995  0.47320320    -0.15200
C2062       C  0.58781123  0.65288753  0.44967470    -0.30300
H2063       H  0.59573355  0.62341699  0.49520209     0.13900
H2064       H  0.56554601  0.65945892  0.42725019     0.14400
C2065       C  0.43055390  0.71053158  0.54699390    -0.15200
C2066       C  0.39018540  0.72406828  0.55441722    -0.30300
H2067       H  0.45799280  0.72453437  0.53590459     0.13900
H2068       H  0.36136464  0.71052750  0.56369630     0.14400
C2069       C  0.28905526  0.65770220  0.49190081    -0.15200
C2070       C  0.25281904  0.65002145  0.51237194    -0.30300
H2071       H  0.28611012  0.67510929  0.47060296     0.13900
H2072       H  0.25569515  0.63247063  0.53350354     0.14400
C2073       C  0.29860810  0.56287187  0.13689664    -0.15200
C2074       C  0.29169603  0.58301044  0.10934821    -0.30300
H2075       H  0.30150791  0.53817096  0.13054776     0.13900
H2076       H  0.28640757  0.60744012  0.11628272     0.14400
C2077       C  0.20917249  0.62914745  0.26028099    -0.15200
C2078       C  0.19113802  0.65048252  0.28383707    -0.30300
H2079       H  0.19041363  0.62195562  0.23574971     0.13900
H2080       H  0.20988187  0.65663088  0.30879216     0.14400
C2081       C  0.36119401  0.70360099  0.19355292    -0.15200
C2082       C  0.40141652  0.71735332  0.18663589    -0.30300
H2083       H  0.33160444  0.71817764  0.19900517     0.13900
H2084       H  0.43190004  0.70310571  0.18568170     0.14400
C2085       C  0.44632308  0.51691199  0.23731027    -0.15200
C2086       C  0.46460710  0.00436587  0.23930802    -0.30300
H2087       H  0.44588580  0.50282370  0.26201318     0.13900
H2088       H  0.48180261  0.52868569  0.18886852     0.14400
C2089       C  0.36432390  0.58518451  0.36812149    -0.15200
C2090       C  0.40742721  0.58308309  0.38016477    -0.30300
H2091       H  0.33649691  0.58712322  0.38807536     0.13900
H2092       H  0.43506211  0.58002111  0.36019232     0.14400
C2093       C  0.74901680  0.72088701  0.34550404    -0.15200
C2094       C  0.75336765  0.70090649  0.37338766    -0.30300
H2095       H  0.75109646  0.74568118  0.35144763     0.13900
H2096       H  0.75508499  0.67615879  0.36695123     0.14400
C2097       C  0.57300578  0.76435572  0.27404174    -0.15200
C2098       C  0.56063837  0.78750198  0.25169740    -0.30300
H2099       H  0.55028940  0.75808376  0.29663234     0.13900
H2100       H  0.58386122  0.79460374  0.22984734     0.14400
C2101       C  0.82710845  0.64033655  0.18898972    -0.15200
C2102       C  0.81412628  0.66392176  0.21195471    -0.30300
H2103       H  0.80430919  0.63294094  0.16699728     0.13900
H2104       H  0.83709656  0.67198623  0.23348210     0.14400
C2105       C  0.67670592  0.58465294  0.28476947    -0.15200
C2106       C  0.63641091  0.57055284  0.28885751    -0.30300
H2107       H  0.70679678  0.57087229  0.27848333     0.13900
H2108       H  0.60561653  0.58449943  0.29039357     0.14400
C2109       C  0.49608564  0.64989388  0.25952817    -0.15200
C2110       C  0.53131136  0.64020224  0.23836830    -0.30300
H2111       H  0.49999210  0.66872144  0.27980450     0.13900
H2112       H  0.52697206  0.62171261  0.21769087     0.14400
C2113       C  0.55556089  0.71303956  0.87359278    -0.15200
C2114       C  0.55499004  0.69102269  0.84635193    -0.30300
H2115       H  0.55671408  0.73743960  0.86657534     0.13900
H2116       H  0.55127468  0.66673032  0.85329939     0.14400
C2117       C  0.60748896  0.70880044  0.10904876    -0.15200
C2118       C  0.64974068  0.71135560  0.12254861    -0.30300
H2119       H  0.57868413  0.70698333  0.12794255     0.13900
H2120       H  0.67824569  0.71414499  0.10352954     0.14400
C2121       C  0.45671463  0.66188041  0.00734439    -0.15200
C2122       C  0.44074827  0.64350114  0.03409771    -0.30300
H2123       H  0.43703426  0.66566792  0.98245569     0.13900
H2124       H  0.46067629  0.64039746  0.05903448     0.14400
C2125       C  0.61296305  0.57825572  0.94626314    -0.15200
C2126       C  0.65572173  0.56692820  0.94695866    -0.30300
H2127       H  0.58413871  0.56270657  0.94812542     0.13900
H2128       H  0.68431040  0.58254558  0.94998605     0.14400
C2129       C  0.69983479  0.76280682  0.97470568    -0.15200
C2130       C  0.73723277  0.76077009  0.95282539    -0.30300
H2131       H  0.69807989  0.78029107  0.99689356     0.13900
H2132       H  0.73958698  0.74256101  0.93152055     0.14400
C2133       C  0.77565160  0.57661945  0.58996129    -0.15200
C2134       C  0.77371285  0.56853805  0.62604322    -0.30300
H2135       H  0.74343228  0.58066039  0.57645726     0.13900
H2136       H  0.73973866  0.56576134  0.63750497     0.14400
C2137       C  0.69592546  0.63219383  0.74072539    -0.15200
C2138       C  0.72761264  0.62707279  0.76640158    -0.30300
H2139       H  0.69915271  0.62083619  0.71353584     0.13900
H2140       H  0.72551714  0.63939343  0.79303938     0.14400
C2141       C  0.89192322  0.69092552  0.67221910    -0.15200
C2142       C  0.92984074  0.70459586  0.68538913    -0.30300
H2143       H  0.86590146  0.70418172  0.65838838     0.13900
H2144       H  0.95473281  0.69043189  0.69945568     0.14400
C2145       C  0.95472825  0.50830385  0.70318356    -0.15200
C2146       C  0.99191902  0.01477433  0.70527364    -0.30300
H2147       H  0.94606090  0.48599554  0.71474434     0.13900
H2148       H  0.99352828  0.03103907  0.68262086     0.14400
C2149       C  0.00407603  0.63296687  0.75015859    -0.15200
C2150       C  0.03393998  0.63990549  0.72345750    -0.30300
H2151       H  0.01229542  0.63692415  0.77928524     0.13900
H2152       H  0.02704461  0.63447363  0.69440869     0.14400
C2153       C  0.98850469  0.59272349  0.08901302    -0.15200
C2154       C  0.99602670  0.57181010  0.11474046    -0.30300
H2155       H  0.98441803  0.61655147  0.09917008     0.13900
H2156       H  0.00192127  0.54816568  0.10454586     0.14400
C2157       C  0.73848422  0.62736107  0.00133566    -0.15200
C2158       C  0.76188238  0.62089490  0.97007488    -0.30300
H2159       H  0.74986172  0.61937672  0.02816981     0.13900
H2160       H  0.75031422  0.62954364  0.94358131     0.14400
C2161       C  0.86706046  0.56498211  0.84727419    -0.15200
C2162       C  0.90773219  0.56000204  0.86310212    -0.30300
H2163       H  0.83890084  0.57237061  0.86514520     0.13900
H2164       H  0.93700458  0.55332329  0.84616432     0.14400
C2165       C  0.81159342  0.00139143  0.02611647    -0.15200
C2166       C  0.84008877  0.50114266  0.00393724    -0.30300
H2167       H  0.83244307  0.99581988  0.00178718     0.13900
H2168       H  0.84144669  0.48515774  0.98018238     0.14400
C2169       C  0.04787134  0.63323279  0.95038702    -0.15200
C2170       C  0.08293310  0.63319499  0.97419294    -0.30300
H2171       H  0.04831556  0.64945570  0.92765111     0.13900
H2172       H  0.08187581  0.61814951  0.99805592     0.14400
C2173       C  0.87763696  0.69128218  0.02897013    -0.15200
C2174       C  0.90908847  0.71320906  0.02883589    -0.30300
H2175       H  0.84198804  0.69761705  0.03156466     0.13900
H2176       H  0.94490656  0.70719317  0.02813210     0.14400
loop_ 
_geom_bond_atom_site_label_1 
_geom_bond_atom_site_label_2 
_geom_bond_distance 
_geom_bond_site_symmetry_2 
_ccdc_geom_bond_type 
O1          Cr19   1.985   1_455  S
O1            C9   1.259   1_554  A
O2          Cr19   2.062       .  S
O2            C3   1.289       .  A
C3            O4   1.259       .  A
C3         C1065   1.475       .  S
O4          Cr20   1.937       .  S
O5          Cr20   1.967       .  S
O5            C6   1.242       .  A
C6            O7   1.256       .  A
C6         C1085   1.454       .  S
O7          Cr21   1.993   1_554  S
O8          Cr21   1.990       .  S
O8            C9   1.264   1_655  A
C9         C1081   1.479       .  S
O10         Cr19   2.044   1_556  S
O10          C18   1.275       .  A
O11         Cr19   2.021       .  S
O11          C12   1.257       .  A
C12          O13   1.248       .  A
C12        C1078   1.485       .  S
O13         Cr20   1.985       .  S
O14         Cr20   1.957       .  S
O14          C15   1.271       .  A
C15          O16   1.274   1_554  A
C15        C1070   1.445   1_554  S
O16         Cr21   2.004       .  S
O17         Cr21   1.959       .  S
O17          C18   1.258       .  A
C18        C1074   1.506       .  S
Cr19         O22   1.773       .  S
Cr20         O22   1.779       .  S
Cr21         O22   1.761   1_556  S
O23         Cr41   2.051       .  S
O23          C31   1.284       .  A
O24         Cr41   1.990       .  S
O24          C25   1.265       .  A
C25          O26   1.261       .  A
C25        C1046   1.486       .  S
O26         Cr42   1.999       .  S
O27         Cr42   1.967       .  S
O27          C28   1.246       .  A
C28          O29   1.254       .  A
C28        C1053   1.478       .  S
O29         Cr43   2.019       .  S
O30         Cr43   1.952       .  S
O30          C31   1.267       .  A
C31        C1050   1.470       .  S
O32         Cr41   2.028       .  S
O32          C40   1.257       .  A
O33         Cr41   2.021       .  S
O33          C34   1.268       .  A
C34          O35   1.256       .  A
C34        C1057   1.491       .  S
O35         Cr42   1.957       .  S
O36         Cr42   2.021       .  S
O36          C37   1.279       .  A
C37          O38   1.263       .  A
C37        C1061   1.454   1_655  S
O38         Cr43   1.948       .  S
O39         Cr43   1.997       .  S
O39          C40   1.255       .  A
C40        C1073   1.492       .  S
Cr41         O44   1.774       .  S
Cr42         O44   1.778       .  S
Cr43         O44   1.784       .  S
O45         Cr63   2.012       .  S
O45          C53   1.267       .  A
O46         Cr63   1.982   1_556  S
O46          C47   1.260       .  A
C47          O48   1.260       .  A
C47        C1037   1.469       .  S
O48         Cr64   1.998       .  S
O49         Cr64   1.949       .  S
O49          C50   1.256       .  A
C50          O51   1.273       .  A
C50        C1025   1.471       .  S
O51         Cr65   2.035   1_556  S
O52         Cr65   2.002       .  S
O52          C53   1.261       .  A
C53        C1033   1.497       .  S
O54         Cr63   1.952       .  S
O54          C62   1.253       .  A
O55         Cr63   1.999       .  S
O55          C56   1.263       .  A
C56          O57   1.262       .  A
C56        C1069   1.449       .  S
O57         Cr64   1.953   1_554  S
O58         Cr64   2.019       .  S
O58          C59   1.267       .  A
C59          O60   1.266   1_556  A
C59        C1041   1.503       .  S
O60         Cr65   2.010       .  S
O61         Cr65   2.048       .  S
O61          C62   1.275       .  A
C62        C1029   1.481       .  S
Cr63         O66   1.768       .  S
Cr64         O66   1.763   1_556  S
Cr65         O66   1.773       .  S
O67         Cr85   2.047       .  S
O67          C75   1.277       .  A
O68         Cr85   1.981       .  S
O68          C69   1.254       .  A
C69          O70   1.262       .  A
C69        C1017   1.478       .  S
O70         Cr86   2.021       .  S
O71         Cr86   1.958       .  S
O71          C72   1.262       .  A
C72          O73   1.269       .  A
C72        C1005   1.468       .  S
O73         Cr87   2.014       .  S
O74         Cr87   1.978       .  S
O74          C75   1.259       .  A
C75        C1014   1.500       .  S
O76         Cr85   1.980       .  S
O76          C84   1.256       .  A
O77         Cr85   2.039       .  S
O77          C78   1.279       .  A
C78          O79   1.256       .  A
C78        C1022   1.467       .  S
O79         Cr86   1.947       .  S
O80         Cr86   2.010       .  S
O80          C81   1.265       .  A
C81          O82   1.265       .  A
C81        C1009   1.488       .  S
O82         Cr87   2.005       .  S
O83         Cr87   2.024       .  S
O83          C84   1.267       .  A
C84        C1030   1.481       .  S
Cr85         O88   1.758       .  S
Cr86         O88   1.766       .  S
Cr87         O88   1.775       .  S
O89        Cr107   1.963       .  S
O89          C97   1.256       .  A
O90        Cr107   2.026       .  S
O90          C91   1.273       .  A
C91          O92   1.262       .  A
C91         C985   1.470       .  S
O92        Cr108   1.965       .  S
O93        Cr108   2.005       .  S
O93          C94   1.258       .  A
C94          O95   1.254       .  A
C94         C993   1.468       .  S
O95        Cr109   1.978       .  S
O96        Cr109   2.043       .  S
O96          C97   1.278       .  A
C97         C989   1.488       .  S
O98        Cr107   2.038       .  S
O98         C106   1.269       .  A
O99        Cr107   1.992       .  S
O99         C100   1.264       .  A
C100        O101   1.260       .  A
C100        C997   1.473       .  S
O101       Cr108   1.995       .  S
O102       Cr108   1.954       .  S
O102        C103   1.257       .  A
C103        O104   1.278       .  A
C103       C1021   1.469       .  S
O104       Cr109   2.035       .  S
O105       Cr109   1.974       .  S
O105        C106   1.253       .  A
C106       C1001   1.486       .  S
Cr107       O110   1.773       .  S
Cr108       O110   1.767       .  S
Cr109       O110   1.754       .  S
O111       Cr129   1.979       .  S
O111        C119   1.258       .  A
O112       Cr129   2.015       .  S
O112        C113   1.269       .  A
C113        O114   1.259       .  A
C113        C965   1.466       .  S
O114       Cr130   1.961       .  S
O115       Cr130   1.994       .  S
O115        C116   1.257       .  A
C116        O117   1.258       .  A
C116        C977   1.468       .  S
O117       Cr131   1.982       .  S
O118       Cr131   2.024       .  S
O118        C119   1.272       .  A
C119        C973   1.489       .  S
O120       Cr129   2.035       .  S
O120        C128   1.269       .  A
O121       Cr129   2.001       .  S
O121        C122   1.267       .  A
C122        O123   1.262       .  A
C122        C969   1.478       .  S
O123       Cr130   1.998       .  S
O124       Cr130   1.961       .  S
O124        C125   1.263       .  A
C125        O126   1.269       .  A
C125        C981   1.465       .  S
O126       Cr131   2.012       .  S
O127       Cr131   1.980       .  S
O127        C128   1.256       .  A
C128       C1002   1.485       .  S
Cr129       O132   1.775       .  S
Cr130       O132   1.766       .  S
Cr131       O132   1.758       .  S
O133       Cr151   2.007       .  S
O133        C141   1.268       .  A
O134       Cr151   1.986       .  S
O134        C135   1.259       .  A
C135        O136   1.256       .  A
C135        C957   1.465       .  S
O136       Cr152   1.986       .  S
O137       Cr152   1.946       .  S
O137        C138   1.258       .  A
C138        O139   1.270       .  A
C138        C945   1.464       .  S
O139       Cr153   2.017       .  S
O140       Cr153   1.985       .  S
O140        C141   1.258       .  A
C141        C953   1.486       .  S
O142       Cr151   1.962       .  S
O142        C150   1.254       .  A
O143       Cr151   1.997       .  S
O143        C144   1.265       .  A
C144        O145   1.265       .  A
C144       C1062   1.452       .  S
O145       Cr152   1.957       .  S
O146       Cr152   1.998       .  S
O146        C147   1.260       .  A
C147        O148   1.266       .  A
C147        C950   1.483       .  S
O148       Cr153   2.009       .  S
O149       Cr153   2.030       .  S
O149        C150   1.269       .  A
C150        C961   1.476       .  S
Cr151       O154   1.758       .  S
Cr152       O154   1.760       .  S
Cr153       O154   1.775       .  S
O155       Cr173   2.024       .  S
O155        C163   1.271       .  A
O156       Cr173   1.981       .  S
O156        C157   1.260       .  A
C157        O158   1.265       .  A
C157        C937   1.473       .  S
O158       Cr174   2.011       .  S
O159       Cr174   1.963       .  S
O159        C160   1.257       .  A
C160        O161   1.271       .  A
C160        C929   1.475       .  S
O161       Cr175   2.032       .  S
O162       Cr175   1.975       .  S
O162        C163   1.258       .  A
C163        C933   1.480   1_455  S
O164       Cr173   1.966       .  S
O164        C172   1.255       .  A
O165       Cr173   2.010       .  S
O165        C166   1.266       .  A
C166        O167   1.261       .  A
C166        C982   1.465       .  S
O167       Cr174   1.963       .  S
O168       Cr174   2.027       .  S
O168        C169   1.270       .  A
C169        O170   1.258       .  A
C169        C942   1.479       .  S
O170       Cr175   1.975       .  S
O171       Cr175   2.035       .  S
O171        C172   1.270       .  A
C172        C962   1.474       .  S
Cr173       O176   1.758       .  S
Cr174       O176   1.762       .  S
Cr175       O176   1.771       .  S
O177       Cr195   2.018       .  S
O177        C185   1.272       .  A
O178       Cr195   1.977       .  S
O178        C179   1.254       .  A
C179        O180   1.258       .  A
C179        C913   1.463       .  S
O180       Cr196   2.003       .  S
O181       Cr196   1.965       .  S
O181        C182   1.263       .  A
C182        O183   1.267       .  A
C182        C905   1.467       .  S
O183       Cr197   2.007       .  S
O184       Cr197   1.984       .  S
O184        C185   1.260       .  A
C185        C909   1.490       .  S
O186       Cr195   1.974       .  S
O186        C194   1.256       .  A
O187       Cr195   2.016       .  S
O187        C188   1.272       .  A
C188        O189   1.261       .  A
C188        C917   1.462       .  S
O189       Cr196   1.962       .  S
O190       Cr196   1.999       .  S
O190       C1279   1.262       .  A
C191        O192   1.267       .  A
C191       O1278   1.263       .  A
C191        C925   1.484   1_565  S
O192      Cr1285   2.008       .  S
O193       Cr197   2.021       .  S
O193        C194   1.265       .  A
C194        C921   1.474       .  S
Cr195       O198   1.756       .  S
Cr196       O198   1.762       .  S
Cr197      O1280   2.012       .  S
Cr197       O198   1.774       .  S
O199       Cr217   1.998       .  S
O199        C207   1.261       .  A
O200       Cr217   1.972       .  S
O200        C201   1.259       .  A
C201        O202   1.262       .  A
C201        C901   1.450       .  S
O202       Cr218   1.991       .  S
O203       Cr218   1.963       .  S
O203        C204   1.253       .  A
C204        O205   1.269       .  A
C204        C885   1.477       .  S
O205       Cr219   2.032       .  S
O206       Cr219   2.011       .  S
O206        C207   1.265       .  A
C207        C897   1.480       .  S
O208       Cr217   1.963       .  S
O208        C216   1.257       .  A
O209       Cr217   1.987       .  S
O209        C210   1.259       .  A
C210        O211   1.263       .  A
C210        C893   1.460       .  S
O211       Cr218   1.977       .  S
O212       Cr218   2.017       .  S
O212       C1301   1.271       .  A
C213        O214   1.262       .  A
C213       O1300   1.269   1_545  A
C213        C889   1.489       .  S
O214      Cr1307   1.991   1_545  S
O215       Cr219   2.045       .  S
O215        C216   1.274       .  A
C216        C922   1.476       .  S
Cr217       O220   1.755       .  S
Cr218       O220   1.766       .  S
Cr219      O1302   1.988       .  S
Cr219       O220   1.773       .  S
O221       Cr239   1.975       .  S
O221        C229   1.258       .  A
O222       Cr239   2.025   1_554  S
O222        C223   1.272       .  A
C223        O224   1.259       .  A
C223        C861   1.468       .  S
O224       Cr240   1.956       .  S
O225       Cr240   1.970       .  S
O225        C226   1.251       .  A
C226        O227   1.253   1_554  A
C226        C881   1.454       .  S
O227       Cr241   1.981       .  S
O228       Cr241   2.028       .  S
O228        C229   1.273       .  A
C229        C877   1.490       .  S
O230       Cr239   2.044       .  S
O230        C238   1.271       .  A
O231       Cr239   2.015       .  S
O231        C232   1.270   1_556  A
C232        O233   1.257       .  A
C232        C865   1.475       .  S
O233       Cr240   1.986       .  S
O234       Cr240   1.965       .  S
O234        C235   1.265   1_554  A
C235        O236   1.273       .  A
C235        C869   1.462       .  S
O236       Cr241   2.018       .  S
O237       Cr241   1.974       .  S
O237        C238   1.254       .  A
C238        C873   1.490       .  S
Cr239       O242   1.776       .  S
Cr240       O242   1.769   1_554  S
Cr241       O242   1.759       .  S
O243       Cr261   1.996       .  S
O243        C251   1.263       .  A
O244       Cr261   2.034       .  S
O244        C245   1.275       .  A
C245        O246   1.260       .  A
C245        C845   1.480       .  S
O246       Cr262   1.976       .  S
O247       Cr262   2.016       .  S
O247        C248   1.266       .  A
C248        O249   1.260       .  A
C248        C857   1.466       .  S
O249       Cr263   1.975       .  S
O250       Cr263   2.013       .  S
O250        C251   1.268       .  A
C251        C853   1.480       .  S
O252       Cr261   2.047       .  S
O252        C260   1.273       .  A
O253       Cr261   1.990       .  S
O253        C254   1.263       .  A
C254        O255   1.262       .  A
C254        C849   1.476       .  S
O255       Cr262   1.998       .  S
O256       Cr262   1.973       .  S
O256        C257   1.257       .  A
C257        O258   1.266       .  A
C257        C918   1.466       .  S
O258       Cr263   2.000       .  S
O259       Cr263   1.986       .  S
O259        C260   1.258       .  A
C260        C874   1.491       .  S
Cr261       O264   1.770       .  S
Cr262       O264   1.780       .  S
Cr263       O264   1.757       .  S
O265       Cr283   1.974       .  S
O265        C273   1.261       .  A
O266       Cr283   1.983   1_556  S
O266        C267   1.264       .  A
C267        O268   1.265       .  A
C267        C833   1.468       .  S
O268       Cr284   1.993       .  S
O269       Cr284   1.986       .  S
O269        C270   1.254       .  A
C270        O271   1.261       .  A
C270        C826   1.478       .  S
O271       Cr285   2.016       .  S
O272       Cr285   2.013   1_554  S
O272        C273   1.265       .  A
C273        C829   1.474   1_455  S
O274       Cr283   1.981       .  S
O274        C282   1.259       .  A
O275       Cr283   1.994       .  S
O275        C276   1.263       .  A
C276        O277   1.259   1_554  A
C276        C870   1.475       .  S
O277       Cr284   1.980       .  S
O278       Cr284   1.956       .  S
O278       C1367   1.260       .  A
C279        O280   1.275       .  A
C279       O1366   1.265       .  A
C279        C841   1.504   1_565  S
O280      Cr1373   2.044       .  S
O281       Cr285   2.013   1_554  S
O281        C282   1.267       .  A
C282        C837   1.475       .  S
Cr283       O286   1.771   1_554  S
Cr284       O286   1.781       .  S
Cr285      O1368   2.032       .  S
Cr285       O286   1.784       .  S
O287       Cr305   2.031       .  S
O287        C295   1.274       .  A
O288       Cr305   1.980       .  S
O288        C289   1.255       .  A
C289        O290   1.256       .  A
C289        C821   1.458       .  S
O290       Cr306   1.982       .  S
O291       Cr306   1.953       .  S
O291        C292   1.258       .  A
C292        O293   1.270       .  A
C292        C805   1.464       .  S
O293       Cr307   2.023       .  S
O294       Cr307   1.982       .  S
O294        C295   1.261       .  A
C295        C817   1.494       .  S
O296       Cr305   1.978       .  S
O296        C304   1.258       .  A
O297       Cr305   2.036       .  S
O297        C298   1.275       .  A
C298        O299   1.258       .  A
C298        C813   1.466       .  S
O299       Cr306   1.956       .  S
O300       Cr306   1.990       .  S
O300       C1389   1.257       .  A
C301        O302   1.267       .  A
C301       O1388   1.267   1_545  A
C301        C810   1.499       .  S
O302      Cr1395   2.007   1_545  S
O303       Cr307   2.028       .  S
O303        C304   1.267       .  A
C304        C838   1.485       .  S
Cr305       O308   1.759       .  S
Cr306       O308   1.759       .  S
Cr307      O1390   2.010       .  S
Cr307       O308   1.772       .  S
O309       Cr327   2.008       .  S
O309        C317   1.263       .  A
O310       Cr327   2.021       .  S
O310        C311   1.271       .  A
C311        O312   1.256       .  A
C311        C785   1.482       .  S
O312       Cr328   1.969       .  S
O313       Cr328   2.026       .  S
O313        C314   1.270       .  A
C314        O315   1.258       .  A
C314        C793   1.462       .  S
O315       Cr329   1.966       .  S
O316       Cr329   2.029       .  S
O316        C317   1.270       .  A
C317        C789   1.500       .  S
O318       Cr327   2.034       .  S
O318        C326   1.272       .  A
O319       Cr327   1.987       .  S
O319        C320   1.260       .  A
C320        O321   1.271       .  A
C320        C801   1.494       .  S
O321       Cr328   2.017       .  S
O322       Cr328   1.972       .  S
O322        C323   1.255       .  A
C323        O324   1.267       .  A
C323        C814   1.473   1_655  S
O324       Cr329   2.013       .  S
O325       Cr329   1.977       .  S
O325        C326   1.259       .  A
C326        C797   1.478       .  S
Cr327       O330   1.772       .  S
Cr328       O330   1.779       .  S
Cr329       O330   1.755       .  S
O331       Cr349   2.001   1_455  S
O331        C339   1.260       .  A
O332       Cr349   2.020       .  S
O332        C333   1.269       .  A
C333        O334   1.256       .  A
C333        C769   1.467       .  S
O334       Cr350   1.954       .  S
O335       Cr350   1.994       .  S
O335        C336   1.260       .  A
C336        O337   1.257       .  A
C336        C777   1.458       .  S
O337       Cr351   1.975       .  S
O338       Cr351   2.016   1_455  S
O338        C339   1.268       .  A
C339        C773   1.500       .  S
O340       Cr349   2.044       .  S
O340        C348   1.273       .  A
O341       Cr349   2.004       .  S
O341        C342   1.266       .  A
C342        O343   1.268       .  A
C342        C782   1.496       .  S
O343       Cr350   2.018       .  S
O344       Cr350   1.969       .  S
O344        C345   1.266       .  A
C345        O346   1.265       .  A
C345        C894   1.464       .  S
O346       Cr351   2.005       .  S
O347       Cr351   1.953       .  S
O347        C348   1.253       .  A
C348        C798   1.478       .  S
Cr349       O352   1.774       .  S
Cr350       O352   1.764       .  S
Cr351       O352   1.763       .  S
O353       Cr371   1.997       .  S
O353        C361   1.265       .  A
O354       Cr371   2.035       .  S
O354        C355   1.275       .  A
C355        O356   1.259       .  A
C355       C1045   1.475       .  S
O356       Cr372   1.967       .  S
O357       Cr372   2.022       .  S
O357        C358   1.266   1_545  A
C358        O359   1.257   1_565  A
C358       C1866   1.468       .  S
O359       Cr373   1.974       .  S
O360       Cr373   2.015       .  S
O360        C361   1.268       .  A
C361        C890   1.485       .  S
O362       Cr371   2.051       .  S
O362        C370   1.274       .  A
O363       Cr371   2.004       .  S
O363        C364   1.266       .  A
C364        O365   1.261       .  A
C364        C934   1.478       .  S
O365       Cr372   1.995       .  S
O366       Cr372   1.966       .  S
O366        C367   1.255       .  A
C367        O368   1.268       .  A
C367        C762   1.463   1_655  S
O368       Cr373   2.008       .  S
O369       Cr373   1.989       .  S
O369        C370   1.258       .  A
C370        C765   1.497       .  S
Cr371       O374   1.767       .  S
Cr372       O374   1.780       .  S
Cr373       O374   1.758       .  S
O375       Cr393   2.003   1_455  S
O375        C383   1.266       .  A
O376       Cr393   2.056       .  S
O376        C377   1.282       .  A
C377        O378   1.250       .  A
C377       C1066   1.472       .  S
O378       Cr394   1.943       .  S
O379       Cr394   1.992       .  S
O379        C380   1.258   1_545  A
C380        O381   1.255   1_565  A
C380       C1882   1.459       .  S
O381       Cr395   1.978       .  S
O382       Cr395   2.025       .  S
O382        C383   1.272   1_655  A
C383        C809   1.498       .  S
O384       Cr393   2.056       .  S
O384        C392   1.276       .  A
O385       Cr393   2.040       .  S
O385        C386   1.272       .  A
C386        O387   1.258       .  A
C386       C1013   1.499       .  S
O387       Cr394   1.991       .  S
O388       Cr394   1.949       .  S
O388        C389   1.252       .  A
C389        O390   1.276       .  A
C389        C758   1.456       .  S
O390       Cr395   2.030       .  S
O391       Cr395   1.982       .  S
O391        C392   1.258       .  A
C392        C766   1.498       .  S
Cr393       O396   1.763       .  S
Cr394       O396   1.763       .  S
Cr395       O396   1.750       .  S
O397       Cr415   1.962       .  S
O397        C405   1.259       .  A
O398      Cr1503   1.980       .  S
O398        C399   1.260       .  A
C399        O400   1.259       .  A
C399        C958   1.463       .  S
O400      Cr1504   1.986   1_545  S
O401       Cr416   1.981       .  S
O401        C402   1.249       .  A
C402        O403   1.257       .  A
C402        C825   1.479       .  S
O403       Cr417   2.018       .  S
O404       Cr417   2.037       .  S
O404        C405   1.271       .  A
C405       C1058   1.487   1_455  S
O406       Cr415   1.965       .  S
O406        C414   1.255       .  A
O407      Cr1503   1.981   1_565  S
O407       C1496   1.263   1_565  A
C408        O409   1.255       .  A
C408       O1495   1.258       .  A
C408       C1838   1.466       .  S
O409       Cr416   1.975       .  S
O410       Cr416   1.935       .  S
O410        C411   1.258       .  A
C411        O412   1.282       .  A
C411        C854   1.489       .  S
O412       Cr417   2.058       .  S
O413       Cr417   2.009       .  S
O413        C414   1.264       .  A
C414        C753   1.472       .  S
Cr415      O1486   1.968       .  S
Cr415      O1495   1.987       .  S
Cr415       O418   1.768       .  S
Cr416      O1488   1.985       .  S
Cr416       O418   1.787       .  S
Cr417       O418   1.784       .  S
O419       Cr437   2.012       .  S
O419        C427   1.269       .  A
O420      Cr1525   1.977       .  S
O420        C421   1.257       .  A
C421        O422   1.264       .  A
C421        C938   1.470       .  S
O422      Cr1526   2.019   1_545  S
O423       Cr438   1.962       .  S
O423        C424   1.258       .  A
C424        O425   1.266       .  A
C424        C806   1.464       .  S
O425       Cr439   2.010       .  S
O426       Cr439   2.005       .  S
O426        C427   1.265       .  A
C427        C970   1.501       .  S
O428       Cr437   1.977       .  S
O428        C436   1.257       .  A
O429      Cr1525   2.020       .  S
O429       C1518   1.271   1_545  A
C430        O431   1.265       .  A
C430       O1517   1.264       .  A
C430       C1849   1.460       .  S
O431       Cr438   1.966       .  S
O432       Cr438   1.998       .  S
O432        C433   1.262       .  A
C433        O434   1.272       .  A
C433        C774   1.493       .  S
O434       Cr439   2.032       .  S
O435       Cr439   2.021       .  S
O435        C436   1.265       .  A
C436        C754   1.477       .  S
Cr437      O1508   1.995       .  S
Cr437      O1517   1.997       .  S
Cr437       O440   1.767       .  S
Cr438      O1510   1.978       .  S
Cr438       O440   1.761       .  S
Cr439       O440   1.779       .  S
O441       Cr459   2.012       .  S
O441        C449   1.268       .  A
O442      Cr1547   1.983   1_556  S
O442        C443   1.261       .  A
C443        O444   1.261       .  A
C443       C1038   1.468       .  S
O444      Cr1548   1.998   1_545  S
O445       Cr460   1.962       .  S
O445        C446   1.262       .  A
C446        O447   1.266       .  A
C446        C906   1.466       .  S
O447       Cr461   2.008       .  S
O448       Cr461   2.013       .  S
O448        C449   1.267   1_556  A
C449       C1077   1.494       .  S
O450       Cr459   1.977       .  S
O450        C458   1.257       .  A
O451      Cr1547   2.001       .  S
O451       C1540   1.263       .  A
C452        O453   1.262       .  A
C452       O1539   1.267   1_556  A
C452       C1829   1.460       .  S
O453       Cr460   1.972       .  S
O454       Cr460   1.990       .  S
O454        C455   1.258       .  A
C455        O456   1.272       .  A
C455        C878   1.487       .  S
O456       Cr461   2.028       .  S
O457       Cr461   2.022   1_554  S
O457        C458   1.266       .  A
C458        C745   1.477       .  S
Cr459      O1530   1.981   1_554  S
Cr459      O1539   1.994       .  S
Cr459       O462   1.754   1_554  S
Cr460      O1532   1.990       .  S
Cr460       O462   1.766       .  S
Cr461       O462   1.772       .  S
O463       Cr481   2.012       .  S
O463        C471   1.267       .  A
O464      Cr1569   1.973       .  S
O464        C465   1.258       .  A
C465        O466   1.271       .  A
C465       C1018   1.477       .  S
O466      Cr1570   2.039   1_545  S
O467       Cr482   1.957       .  S
O467        C468   1.254       .  A
C468        O469   1.273       .  A
C468        C886   1.476       .  S
O469       Cr483   2.040       .  S
O470       Cr483   2.021       .  S
O470        C471   1.271       .  A
C471        C998   1.495       .  S
O472       Cr481   1.969       .  S
O472        C480   1.258       .  A
O473      Cr1569   2.029       .  S
O473       C1562   1.271   1_545  A
C474        O475   1.248       .  A
C474       O1561   1.267       .  A
C474       C1845   1.454       .  S
O475       Cr482   1.953       .  S
O476       Cr482   2.011       .  S
O476        C477   1.268       .  A
C477        O478   1.268       .  A
C477        C790   1.502       .  S
O478       Cr483   2.012       .  S
O479       Cr483   2.039       .  S
O479        C480   1.272       .  A
C480        C746   1.477       .  S
Cr481      O1552   1.970       .  S
Cr481      O1561   2.006       .  S
Cr481       O484   1.750       .  S
Cr482      O1554   2.021       .  S
Cr482       O484   1.763       .  S
Cr483       O484   1.766       .  S
O485       Cr503   2.044       .  S
O485        C493   1.272       .  A
O486       Cr503   2.024   1_554  S
O486        C487   1.266       .  A
C487        O488   1.253       .  A
C487        C986   1.470       .  S
O488       Cr504   1.958       .  S
O489       Cr504   1.976       .  S
O489        C490   1.258   1_545  A
C490        O491   1.261   1_564  A
C490       C1970   1.453       .  S
O491       Cr505   1.979       .  S
O492       Cr505   1.994       .  S
O492        C493   1.260       .  A
C493        C842   1.498       .  S
O494       Cr503   2.037       .  S
O494        C502   1.272       .  A
O495       Cr503   2.030       .  S
O495        C496   1.274   1_556  A
C496        O497   1.264       .  A
C496       C1034   1.490       .  S
O497       Cr504   1.997       .  S
O498       Cr504   1.978       .  S
O498        C499   1.264   1_554  A
C499        O500   1.260       .  A
C499        C742   1.461       .  S
O500       Cr505   1.985       .  S
O501       Cr505   1.977       .  S
O501        C502   1.259       .  A
C502        C737   1.479       .  S
Cr503       O506   1.773       .  S
Cr504       O506   1.762   1_554  S
Cr505       O506   1.754       .  S
O507       Cr525   1.988       .  S
O507        C515   1.261       .  A
O508       Cr525   2.024       .  S
O508        C509   1.270       .  A
C509        O510   1.256       .  A
C509        C966   1.466       .  S
O510       Cr526   1.953       .  S
O511       Cr526   1.978       .  S
O511        C512   1.255   1_545  A
C512        O513   1.255   1_565  A
C512       C1946   1.454       .  S
O513       Cr527   1.979       .  S
O514       Cr527   2.013       .  S
O514        C515   1.269       .  A
C515        C926   1.488       .  S
O516       Cr525   2.039       .  S
O516        C524   1.270       .  A
O517       Cr525   2.011       .  S
O517        C518   1.270       .  A
C518        O519   1.262       .  A
C518        C954   1.480       .  S
O519       Cr526   1.997       .  S
O520       Cr526   1.963       .  S
O520        C521   1.263       .  A
C521        O522   1.267       .  A
C521        C749   1.454       .  S
O522       Cr527   2.003       .  S
O523       Cr527   1.963       .  S
O523        C524   1.254       .  A
C524        C738   1.478       .  S
Cr525       O528   1.774       .  S
Cr526       O528   1.763       .  S
Cr527       O528   1.757       .  S
O529       Cr547   2.024       .  S
O529        C537   1.274       .  A
O530       Cr547   1.983   1_556  S
O530        C531   1.258       .  A
C531        O532   1.258       .  A
C531        C834   1.470       .  S
O532       Cr548   2.001       .  S
O533       Cr548   1.956       .  S
O533        C534   1.260       .  A
C534        O535   1.268       .  A
C534        C946   1.465       .  S
O535       Cr549   2.008       .  S
O536       Cr549   1.966       .  S
O536        C537   1.255   1_556  A
C537        C866   1.480       .  S
O538       Cr547   1.988       .  S
O538        C546   1.259       .  A
O539       Cr547   2.030       .  S
O539        C540   1.273   1_554  A
C540        O541   1.260       .  A
C540        C730   1.461       .  S
O541       Cr548   1.953       .  S
O542       Cr548   1.997       .  S
O542        C543   1.262       .  A
C543        O544   1.265       .  A
C543       C1082   1.476       .  S
O544       Cr549   1.999       .  S
O545       Cr549   2.017   1_554  S
O545        C546   1.265       .  A
C546        C733   1.478       .  S
Cr547       O550   1.755   1_554  S
Cr548       O550   1.762       .  S
Cr549       O550   1.778       .  S
O551       Cr569   2.011       .  S
O551        C559   1.268       .  A
O552       Cr569   1.972       .  S
O552        C553   1.256       .  A
C553        O554   1.259       .  A
C553        C822   1.451       .  S
O554       Cr570   1.995       .  S
O555       Cr570   1.956       .  S
O555        C556   1.256       .  A
C556        O557   1.276       .  A
C556        C930   1.476       .  S
O557       Cr571   2.046       .  S
O558       Cr571   2.015       .  S
O558        C559   1.271       .  A
C559        C802   1.492   1_455  S
O560       Cr569   1.965       .  S
O560        C568   1.255       .  A
O561       Cr569   2.003       .  S
O561        C562   1.269       .  A
C562        O563   1.254       .  A
C562        C725   1.457       .  S
O563       Cr570   1.960       .  S
O564       Cr570   1.990       .  S
O564        C565   1.258       .  A
C565        O566   1.271       .  A
C565        C990   1.487       .  S
O566       Cr571   2.027       .  S
O567       Cr571   2.045       .  S
O567        C568   1.272       .  A
C568        C734   1.483       .  S
Cr569       O572   1.748       .  S
Cr570       O572   1.767       .  S
Cr571       O572   1.767       .  S
O573       Cr591   2.013       .  S
O573        C581   1.265       .  A
O574       Cr591   2.028   1_554  S
O574        C575   1.274       .  A
C575        O576   1.259       .  A
C575        C786   1.481       .  S
O576       Cr592   1.968       .  S
O577       Cr592   1.992       .  S
O577        C578   1.257       .  A
C578        O579   1.262       .  A
C578       C1086   1.454       .  S
O579       Cr593   1.971   1_554  S
O580       Cr593   2.019       .  S
O580        C581   1.268       .  A
C581       C1042   1.498       .  S
O582       Cr591   2.046       .  S
O582        C590   1.274       .  A
O583       Cr591   2.010       .  S
O583        C584   1.264   1_556  A
C584        O585   1.260       .  A
C584        C830   1.485       .  S
O585       Cr592   1.986       .  S
O586       Cr592   1.986       .  S
O586        C587   1.262       .  A
C587        O588   1.267   1_554  A
C587        C729   1.475   1_655  S
O588       Cr593   1.992       .  S
O589       Cr593   1.976       .  S
O589        C590   1.256       .  A
C590        C722   1.489       .  S
Cr591       O594   1.773   1_556  S
Cr592       O594   1.785       .  S
Cr593       O594   1.750   1_556  S
O595       Cr613   1.988   1_455  S
O595        C603   1.259       .  A
O596       Cr613   2.029       .  S
O596        C597   1.272       .  A
C597        O598   1.256       .  A
C597        C770   1.467       .  S
O598       Cr614   1.952       .  S
O599       Cr614   1.994       .  S
O599        C600   1.255       .  A
C600        O601   1.260       .  A
C600       C1054   1.465       .  S
O601       Cr615   2.001       .  S
O602       Cr615   2.013       .  S
O602        C603   1.268   1_655  A
C603        C949   1.487       .  S
O604       Cr613   2.040       .  S
O604        C612   1.274       .  A
O605       Cr613   2.014       .  S
O605        C606   1.268       .  A
C606        O607   1.261       .  A
C606        C910   1.485       .  S
O607       Cr614   1.998       .  S
O608       Cr614   1.945       .  S
O608        C609   1.260       .  A
C609        O610   1.269       .  A
C609        C717   1.457       .  S
O610       Cr615   2.015       .  S
O611       Cr615   1.983       .  S
O611        C612   1.261       .  A
C612        C721   1.487       .  S
Cr613       O616   1.771       .  S
Cr614       O616   1.757       .  S
Cr615       O616   1.764       .  S
O617       Cr635   2.018       .  S
O617        C625   1.270       .  A
O618       Cr635   1.987       .  S
O618        C619   1.262       .  A
C619        O620   1.261       .  A
C619        C914   1.468       .  S
O620       Cr636   1.994       .  S
O621       Cr636   1.953       .  S
O621        C622   1.254       .  A
C622        O623   1.273       .  A
C622       C1026   1.471       .  S
O623       Cr637   2.037       .  S
O624       Cr637   1.976       .  S
O624        C625   1.260       .  A
C625        C850   1.478       .  S
O626       Cr635   1.963       .  S
O626        C634   1.255       .  A
O627       Cr635   2.004       .  S
O627        C628   1.265       .  A
C628        O629   1.258       .  A
C628        C718   1.455       .  S
O629       Cr636   1.953       .  S
O630       Cr636   2.002       .  S
O630        C631   1.265       .  A
C631        O632   1.260       .  A
C631       C1049   1.480       .  S
O632       Cr637   1.990       .  S
O633       Cr637   2.038       .  S
O633        C634   1.271       .  A
C634        C713   1.476       .  S
Cr635       O638   1.757       .  S
Cr636       O638   1.759       .  S
Cr637       O638   1.774       .  S
O639       Cr657   2.008       .  S
O639        C647   1.266       .  A
O640       Cr657   1.979       .  S
O640        C641   1.257       .  A
C641        O642   1.256       .  A
C641        C902   1.453       .  S
O642       Cr658   1.978       .  S
O643       Cr658   1.958       .  S
O643        C644   1.257       .  A
C644        O645   1.266       .  A
C644       C1006   1.467       .  S
O645       Cr659   2.012       .  S
O646       Cr659   2.008       .  S
O646        C647   1.264       .  A
C647        C781   1.490       .  S
O648       Cr657   1.972       .  S
O648        C656   1.255       .  A
O649       Cr657   1.990       .  S
O649        C650   1.264       .  A
C650        O651   1.263       .  A
C650        C709   1.450       .  S
O651       Cr658   1.968       .  S
O652       Cr658   1.998       .  S
O652        C653   1.263       .  A
C653        O654   1.272       .  A
C653        C974   1.486       .  S
O654       Cr659   2.017       .  S
O655       Cr659   2.033       .  S
O655        C656   1.269       .  A
C656        C714   1.478       .  S
Cr657       O660   1.755       .  S
Cr658       O660   1.763       .  S
Cr659       O660   1.772       .  S
O661       Cr679   2.045       .  S
O661        C669   1.278       .  A
O662       Cr679   1.993       .  S
O662        C663   1.267       .  A
C663        O664   1.262       .  A
C663        C846   1.488       .  S
O664       Cr680   2.004       .  S
O665       Cr680   1.996       .  S
O665        C666   1.255       .  A
C666        O667   1.252       .  A
C666        C978   1.468       .  S
O667       Cr681   1.971       .  S
O668       Cr681   1.964       .  S
O668        C669   1.263       .  A
C669        C941   1.473       .  S
O670       Cr679   2.023       .  S
O670        C678   1.258       .  A
O671       Cr679   2.010       .  S
O671        C672   1.264       .  A
C672        O673   1.260       .  A
C672        C898   1.489       .  S
O673       Cr680   1.971       .  S
O674       Cr680   2.000       .  S
O674        C675   1.274       .  A
C675        O676   1.266       .  A
C675        C710   1.467       .  S
O676       Cr681   1.974       .  S
O677       Cr681   1.988       .  S
O677        C678   1.252       .  A
C678        C705   1.481       .  S
Cr679       O682   1.779       .  S
Cr680       O682   1.786       .  S
Cr681       O682   1.777       .  S
O683       Cr701   1.990       .  S
O683        C691   1.262       .  A
O684       Cr701   2.029       .  S
O684        C685   1.273       .  A
C685        O686   1.259       .  A
C685        C862   1.468       .  S
O686       Cr702   1.951       .  S
O687       Cr702   2.005       .  S
O687        C688   1.259       .  A
C688        O689   1.255       .  A
C688        C994   1.469       .  S
O689       Cr703   1.981       .  S
O690       Cr703   2.018       .  S
O690        C691   1.270       .  A
C691       C1010   1.490       .  S
O692       Cr701   2.041       .  S
O692        C700   1.271       .  A
O693       Cr701   2.021       .  S
O693        C694   1.269       .  A
C694        O695   1.262       .  A
C694        C818   1.493       .  S
O695       Cr702   2.002       .  S
O696       Cr702   1.945       .  S
O696        C697   1.256       .  A
C697        O698   1.273       .  A
C697        C726   1.452       .  S
O698       Cr703   2.018       .  S
O699       Cr703   1.962       .  S
O699        C700   1.257       .  A
C700        C706   1.496       .  S
Cr701       O704   1.772       .  S
Cr702       O704   1.763       .  S
Cr703       O704   1.758       .  S
C705        C706   1.352       .  D
C705        H707   1.087       .  S
C706        H708   1.086       .  S
C709        C710   1.342       .  D
C709        H711   1.087       .  S
C710        H712   1.087       .  S
C713        C714   1.349       .  D
C713        H715   1.086       .  S
C714        H716   1.087       .  S
C717        C718   1.341       .  D
C717        H719   1.087       .  S
C718        H720   1.087       .  S
C721        C722   1.353       .  D
C721        H723   1.086       .  S
C722        H724   1.086       .  S
C725        C726   1.335       .  D
C725        H727   1.087       .  S
C726        H728   1.088       .  S
C729        C730   1.346   1_554  D
C729        H731   1.086       .  S
C730        H732   1.087       .  S
C733        C734   1.348       .  D
C733        H735   1.087       .  S
C734        H736   1.086       .  S
C737        C738   1.348       .  D
C737        H739   1.087       .  S
C738        H740   1.086       .  S
C741       C1540   1.464       .  S
C741        C742   1.336   1_554  D
C741       H1831   1.087       .  S
C742        H744   1.088       .  S
H743       C1829   1.087       .  S
C745        C746   1.346       .  D
C745        H747   1.087       .  S
C746        H748   1.087       .  S
C749        C750   1.343       .  D
C749        H751   1.087       .  S
C750       C1496   1.468       .  S
C750       H1840   1.087       .  S
H752       C1838   1.087       .  S
C753        C754   1.348       .  D
C753        H755   1.087       .  S
C754        H756   1.087       .  S
C757       C1562   1.455   1_545  S
C757        C758   1.334       .  D
C757        H759   1.088   1_545  S
C758        H760   1.087       .  S
C761       C1518   1.460   1_545  S
C761        C762   1.339       .  D
C761       H1851   1.087   1_545  S
C762        H764   1.087       .  S
H763       C1849   1.087       .  S
C765        C766   1.356       .  D
C765        H767   1.086       .  S
C766        H768   1.086       .  S
C769        C770   1.348       .  D
C769        H771   1.087       .  S
C770        H772   1.087       .  S
C773        C774   1.347       .  D
C773        H775   1.086       .  S
C774        H776   1.087       .  S
C777        C778   1.348       .  D
C777        H779   1.087       .  S
C778       C1446   1.459       .  S
C778        H780   1.087       .  S
C781        C782   1.354       .  D
C781        H783   1.087       .  S
C782        H784   1.086       .  S
C785        C786   1.354       .  D
C785        H787   1.086       .  S
C786        H788   1.086       .  S
C789        C790   1.357       .  D
C789        H791   1.087       .  S
C790        H792   1.086       .  S
C793        C794   1.343       .  D
C793        H795   1.087       .  S
C794       C1468   1.470       .  S
C794        H796   1.088       .  S
C797        C798   1.351       .  D
C797        H799   1.087       .  S
C798        H800   1.086       .  S
C801        C802   1.347       .  D
C801        H803   1.086       .  S
C802        H804   1.087       .  S
C805        C806   1.343       .  D
C805        H807   1.087       .  S
C806        H808   1.088       .  S
C809        C810   1.357       .  D
C809        H811   1.087       .  S
C810        H812   1.086       .  S
C813        C814   1.342       .  D
C813        H815   1.087       .  S
C814        H816   1.087       .  S
C817        C818   1.344       .  D
C817        H819   1.087       .  S
C818        H820   1.087       .  S
C821        C822   1.344       .  D
C821        H823   1.088       .  S
C822        H824   1.087       .  S
C825        C826   1.342       .  D
C825        H827   1.087       .  S
C826        H828   1.087       .  S
C829        C830   1.350       .  D
C829        H831   1.086       .  S
C830        H832   1.086   1_554  S
C833        C834   1.351       .  D
C833        H835   1.086       .  S
C834        H836   1.089       .  S
C837        C838   1.348       .  D
C837        H839   1.087       .  S
C838        H840   1.086       .  S
C841        C842   1.351       .  D
C841        H843   1.086       .  S
C842        H844   1.088       .  S
C845        C846   1.355       .  D
C845        H847   1.087       .  S
C846        H848   1.087       .  S
C849        C850   1.343       .  D
C849        H851   1.087       .  S
C850        H852   1.087       .  S
C853        C854   1.353       .  D
C853        H855   1.088       .  S
C854        H856   1.086       .  S
C857        C858   1.347       .  D
C857        H859   1.087       .  S
C858       C1600   1.470       .  S
C858        H860   1.087       .  S
C861        C862   1.346       .  D
C861        H863   1.087       .  S
C862        H864   1.087       .  S
C865        C866   1.334       .  D
C865        H867   1.087       .  S
C866        H868   1.087   1_554  S
C869        C870   1.349   1_556  D
C869        H871   1.086       .  S
C870        H872   1.087       .  S
C873        C874   1.353       .  D
C873        H875   1.086       .  S
C874        H876   1.086       .  S
C877        C878   1.339       .  D
C877        H879   1.087       .  S
C878        H880   1.087       .  S
C881        C882   1.346       .  D
C881        H883   1.087       .  S
C882       C1578   1.452       .  S
C882        H884   1.088       .  S
C885        C886   1.352       .  D
C885        H887   1.087       .  S
C886        H888   1.087       .  S
C889        C890   1.349       .  D
C889        H891   1.087       .  S
C890        H892   1.087       .  S
C893        C894   1.338       .  D
C893        H895   1.088       .  S
C894        H896   1.087       .  S
C897        C898   1.347       .  D
C897        H899   1.088       .  S
C898        H900   1.086       .  S
C901        C902   1.345       .  D
C901        H903   1.088       .  S
C902        H904   1.088       .  S
C905        C906   1.337       .  D
C905        H907   1.087       .  S
C906        H908   1.087       .  S
C909        C910   1.342       .  D
C909        H911   1.086       .  S
C910        H912   1.087       .  S
C913        C914   1.350       .  D
C913        H915   1.087       .  S
C914        H916   1.087       .  S
C917        C918   1.342       .  D
C917        H919   1.087       .  S
C918        H920   1.087       .  S
C921        C922   1.347       .  D
C921        H923   1.087       .  S
C922        H924   1.086       .  S
C925        C926   1.344       .  D
C925        H927   1.087       .  S
C926        H928   1.086       .  S
C929        C930   1.351       .  D
C929        H931   1.087       .  S
C930        H932   1.087       .  S
C933        C934   1.341       .  D
C933        H935   1.087       .  S
C934        H936   1.087       .  S
C937        C938   1.349       .  D
C937        H939   1.087       .  S
C938        H940   1.086       .  S
C941        C942   1.340       .  D
C941        H943   1.086       .  S
C942        H944   1.088       .  S
C945        C946   1.341       .  D
C945        H947   1.087       .  S
C946        H948   1.088       .  S
C949        C950   1.343       .  D
C949        H951   1.086       .  S
C950        H952   1.087       .  S
C953        C954   1.341       .  D
C953        H955   1.086       .  S
C954        H956   1.087       .  S
C957        C958   1.351       .  D
C957        H959   1.089       .  S
C958        H960   1.086       .  S
C961        C962   1.350       .  D
C961        H963   1.087       .  S
C962        H964   1.087       .  S
C965        C966   1.345       .  D
C965        H967   1.088       .  S
C966        H968   1.087       .  S
C969       C2058   1.338       .  D
C969        H971   1.087       .  S
C970       C2057   1.350       .  D
C970       H2060   1.086       .  S
H972       C2058   1.087   1_565  S
C973        C974   1.341       .  D
C973        H975   1.087       .  S
C974        H976   1.087       .  S
C977        C978   1.351       .  D
C977        H979   1.088       .  S
C978        H980   1.086       .  S
C981        C982   1.341       .  D
C981        H983   1.087       .  S
C982        H984   1.087       .  S
C985        C986   1.346       .  D
C985        H987   1.087       .  S
C986        H988   1.087       .  S
C989        C990   1.337       .  D
C989        H991   1.087       .  S
C990        H992   1.087       .  S
C993        C994   1.348       .  D
C993        H995   1.087       .  S
C994        H996   1.087       .  S
C997       C2086   1.336       .  D
C997        H999   1.087       .  S
C998       C2085   1.349       .  D
C998       H2088   1.087       .  S
H1000      C2086   1.087       .  S
C1001      C1002   1.352       .  D
C1001      H1003   1.086       .  S
C1002      H1004   1.086       .  S
C1005      C1006   1.341       .  D
C1005      H1007   1.087       .  S
C1006      H1008   1.088       .  S
C1009      C1010   1.346       .  D
C1009      H1011   1.087       .  S
C1010      H1012   1.087       .  S
C1013      C1014   1.343       .  D
C1013      H1015   1.087       .  S
C1014      H1016   1.087       .  S
C1017      C1018   1.347       .  D
C1017      H1019   1.087       .  S
C1018      H1020   1.088       .  S
C1021      C1022   1.334       .  D
C1021      H1023   1.087       .  S
C1022      H1024   1.087       .  S
C1025      C1026   1.352       .  D
C1025      H1027   1.087       .  S
C1026      H1028   1.087       .  S
C1029      C1030   1.353       .  D
C1029      H1031   1.086       .  S
C1030      H1032   1.087       .  S
C1033      C1034   1.346       .  D
C1033      H1035   1.086   1_554  S
C1034      H1036   1.088       .  S
C1037      C1038   1.352       .  D
C1037      H1039   1.087       .  S
C1038      H1040   1.087       .  S
C1041      C1042   1.356       .  D
C1041      H1043   1.086   1_556  S
C1042      H1044   1.087       .  S
C1045      C1046   1.352       .  D
C1045      H1047   1.086       .  S
C1046      H1048   1.087       .  S
C1049      C1050   1.343       .  D
C1049      H1051   1.086       .  S
C1050      H1052   1.087       .  S
C1053      C1054   1.344       .  D
C1053      H1055   1.087       .  S
C1054      H1056   1.086       .  S
C1057      C2146   1.352       .  D
C1057      H1059   1.086       .  S
C1058      C2145   1.354       .  D
C1058      H1060   1.087   1_655  S
C1061      C1062   1.333       .  D
C1061      H1063   1.088       .  S
C1062      H1064   1.087       .  S
C1065      C1066   1.327       .  D
C1065      H1067   1.089       .  S
C1066      H1068   1.088   1_655  S
C1069      C1070   1.335   1_554  D
C1069      H1071   1.087       .  S
C1070      H1072   1.088       .  S
C1073      C1074   1.360       .  D
C1073      H1075   1.087       .  S
C1074      H1076   1.085       .  S
C1077      C2166   1.355       .  D
C1077      H1079   1.087       .  S
C1078      C2165   1.345       .  D
C1078      H1080   1.087       .  S
C1081      C1082   1.340       .  D
C1081      H1083   1.086   1_556  S
C1082      H1084   1.087       .  S
C1085      C1086   1.323       .  D
C1085      H1087   1.088       .  S
C1086      H1088   1.087       .  S
O1089     Cr1107   2.003   1_455  S
O1089      C1097   1.261       .  A
O1090     Cr1107   2.043   1_554  S
O1090      C1091   1.278       .  A
C1091      O1092   1.251       .  A
C1091      C2153   1.475       .  S
O1092     Cr1108   1.936       .  S
O1093     Cr1108   1.987       .  S
O1093      C1094   1.256       .  A
C1094      O1095   1.262   1_554  A
C1094      C2173   1.452       .  S
O1095     Cr1109   1.982       .  S
O1096     Cr1109   2.002       .  S
O1096      C1097   1.261   1_655  A
C1097      C2169   1.488       .  S
O1098     Cr1107   2.049       .  S
O1098      C1106   1.276       .  A
O1099     Cr1107   2.013       .  S
O1099      C1100   1.263   1_556  A
C1100      O1101   1.262       .  A
C1100      C2166   1.500       .  S
O1101     Cr1108   2.003       .  S
O1102     Cr1108   1.963   1_556  S
O1102      C1103   1.262       .  A
C1103      O1104   1.263       .  A
C1103      C2158   1.445       .  S
O1104     Cr1109   1.989       .  S
O1105     Cr1109   1.947       .  S
O1105      C1106   1.257       .  A
C1106      C2162   1.487       .  S
Cr1107     O1110   1.773       .  S
Cr1108     O1110   1.776   1_554  S
Cr1109     O1110   1.756       .  S
O1111     Cr1129   2.052       .  S
O1111      C1119   1.280       .  A
O1112     Cr1129   1.979       .  S
O1112      C1113   1.263       .  A
C1113      O1114   1.265       .  A
C1113      C2134   1.487       .  S
O1114     Cr1130   2.017       .  S
O1115     Cr1130   1.989       .  S
O1115      C1116   1.255       .  A
C1116      O1117   1.255       .  A
C1116      C2141   1.467       .  S
O1117     Cr1131   1.979       .  S
O1118     Cr1131   1.954       .  S
O1118      C1119   1.260       .  A
C1119      C2138   1.472       .  S
O1120     Cr1129   2.008       .  S
O1120      C1128   1.255       .  A
O1121     Cr1129   2.025       .  S
O1121      C1122   1.267       .  A
C1122      O1123   1.258       .  A
C1122      C2145   1.500       .  S
O1123     Cr1130   1.963       .  S
O1124     Cr1130   2.007       .  S
O1124      C1125   1.274       .  A
C1125      O1126   1.262       .  A
C1125      C2149   1.461   1_655  S
O1126     Cr1131   1.960       .  S
O1127     Cr1131   1.992       .  S
O1127      C1128   1.255       .  A
C1128      C2161   1.472       .  S
Cr1129     O1132   1.777       .  S
Cr1130     O1132   1.784       .  S
Cr1131     O1132   1.776       .  S
O1133     Cr1151   2.009       .  S
O1133      C1141   1.267       .  A
O1134     Cr1151   1.987   1_556  S
O1134      C1135   1.262       .  A
C1135      O1136   1.259       .  A
C1135      C2125   1.465       .  S
O1136     Cr1152   1.983       .  S
O1137     Cr1152   1.948       .  S
O1137      C1138   1.253       .  A
C1138      O1139   1.269       .  A
C1138      C2113   1.467       .  S
O1139     Cr1153   2.027       .  S
O1140     Cr1153   1.982       .  S
O1140      C1141   1.258   1_556  A
C1141      C2121   1.478       .  S
O1142     Cr1151   1.959       .  S
O1142      C1150   1.254       .  A
O1143     Cr1151   1.995       .  S
O1143      C1144   1.261   1_554  A
C1144      O1145   1.262       .  A
C1144      C2157   1.451   1_556  S
O1145     Cr1152   1.959       .  S
O1146     Cr1152   2.013       .  S
O1146      C1147   1.267       .  A
C1147      O1148   1.262       .  A
C1147      C2129   1.484       .  S
O1148     Cr1153   1.987       .  S
O1149     Cr1153   2.035   1_554  S
O1149      C1150   1.270       .  A
C1150      C2117   1.471       .  S
Cr1151     O1154   1.763   1_554  S
Cr1152     O1154   1.760       .  S
Cr1153     O1154   1.774       .  S
O1155     Cr1173   2.020       .  S
O1155      C1163   1.270       .  A
O1156     Cr1173   1.982       .  S
O1156      C1157   1.257       .  A
C1157      O1158   1.260       .  A
C1157      C2105   1.468       .  S
O1158     Cr1174   1.999       .  S
O1159     Cr1174   1.963       .  S
O1159      C1160   1.260       .  A
C1160      O1161   1.267       .  A
C1160      C2093   1.466       .  S
O1161     Cr1175   2.009       .  S
O1162     Cr1175   1.995       .  S
O1162      C1163   1.263       .  A
C1163      C2102   1.495       .  S
O1164     Cr1173   1.973       .  S
O1164      C1172   1.256       .  A
O1165     Cr1173   2.009       .  S
O1165      C1166   1.268       .  A
C1166      O1167   1.261       .  A
C1166      C2110   1.462       .  S
O1167     Cr1174   1.961       .  S
O1168     Cr1174   2.007       .  S
O1168      C1169   1.265       .  A
C1169      O1170   1.270       .  A
C1169      C2097   1.494       .  S
O1170     Cr1175   2.017       .  S
O1171     Cr1175   2.022       .  S
O1171      C1172   1.266       .  A
C1172      C2118   1.474       .  S
Cr1173     O1176   1.761       .  S
Cr1174     O1176   1.764       .  S
Cr1175     O1176   1.773       .  S
O1177     Cr1195   1.983       .  S
O1177      C1185   1.258       .  A
O1178     Cr1195   2.022       .  S
O1178      C1179   1.269       .  A
C1179      O1180   1.258       .  A
C1179      C2073   1.470       .  S
O1180     Cr1196   1.963       .  S
O1181     Cr1196   2.030       .  S
O1181      C1182   1.268       .  A
C1182      O1183   1.259       .  A
C1182      C2081   1.487       .  S
O1183     Cr1197   1.983       .  S
O1184     Cr1197   2.031       .  S
O1184      C1185   1.273       .  A
C1185      C2077   1.492       .  S
O1186     Cr1195   2.034       .  S
O1186      C1194   1.270       .  A
O1187     Cr1195   1.991       .  S
O1187      C1188   1.262       .  A
C1188      O1189   1.273       .  A
C1188      C2085   1.499       .  S
O1189     Cr1196   2.036       .  S
O1190     Cr1196   1.953       .  S
O1190      C1191   1.259       .  A
C1191      O1192   1.267       .  A
C1191      C2109   1.464       .  S
O1192     Cr1197   2.015       .  S
O1193     Cr1197   1.966       .  S
O1193      C1194   1.254       .  A
C1194      C2089   1.477       .  S
Cr1195     O1198   1.776       .  S
Cr1196     O1198   1.761       .  S
Cr1197     O1198   1.763       .  S
O1199     Cr1217   2.007       .  S
O1199      C1207   1.264       .  A
O1200     Cr1217   2.020       .  S
O1200      C1201   1.269       .  A
C1201      O1202   1.256       .  A
C1201      C2053   1.465       .  S
O1202     Cr1218   1.950       .  S
O1203     Cr1218   1.987       .  S
O1203      C1204   1.258       .  A
C1204      O1205   1.257       .  A
C1204      C2065   1.460       .  S
O1205     Cr1219   1.979       .  S
O1206     Cr1219   2.019       .  S
O1206      C1207   1.267       .  A
C1207      C2061   1.502       .  S
O1208     Cr1217   2.034       .  S
O1208      C1216   1.272       .  A
O1209     Cr1217   2.023       .  S
O1209      C1210   1.269       .  A
C1210      O1211   1.264       .  A
C1210      C2057   1.495       .  S
O1211     Cr1218   2.004       .  S
O1212     Cr1218   1.969       .  S
O1212      C1213   1.265       .  A
C1213      O1214   1.267       .  A
C1213      C2069   1.466       .  S
O1214     Cr1219   2.008       .  S
O1215     Cr1219   1.964       .  S
O1215      C1216   1.256       .  A
C1216      C2090   1.477       .  S
Cr1217     O1220   1.774       .  S
Cr1218     O1220   1.764       .  S
Cr1219     O1220   1.763       .  S
O1221     Cr1239   1.999       .  S
O1221      C1229   1.260       .  A
O1222     Cr1239   1.985       .  S
O1222      C1223   1.263       .  A
C1223      O1224   1.257       .  A
C1223      C2045   1.457       .  S
O1224     Cr1240   1.977       .  S
O1225     Cr1240   1.950       .  S
O1225      C1226   1.255       .  A
C1226      O1227   1.267       .  A
C1226      C2033   1.464       .  S
O1227     Cr1241   2.012       .  S
O1228     Cr1241   2.015       .  S
O1228      C1229   1.265       .  A
C1229      C2041   1.488       .  S
O1230     Cr1239   1.962       .  S
O1230      C1238   1.257       .  A
O1231     Cr1239   1.986       .  S
O1231      C1232   1.261       .  A
C1232      O1233   1.262       .  A
C1232      C2150   1.450       .  S
O1233     Cr1240   1.969       .  S
O1234     Cr1240   1.996       .  S
O1234      C1235   1.261       .  A
C1235      O1236   1.268       .  A
C1235      C2038   1.485       .  S
O1236     Cr1241   2.014       .  S
O1237     Cr1241   2.026       .  S
O1237      C1238   1.270       .  A
C1238      C2049   1.469       .  S
Cr1239     O1242   1.754       .  S
Cr1240     O1242   1.761       .  S
Cr1241     O1242   1.770       .  S
O1243     Cr1261   2.017       .  S
O1243      C1251   1.271       .  A
O1244     Cr1261   1.974       .  S
O1244      C1245   1.257       .  A
C1245      O1246   1.261       .  A
C1245      C2025   1.464       .  S
O1246     Cr1262   2.007       .  S
O1247     Cr1262   1.978       .  S
O1247      C1248   1.262       .  A
C1248      O1249   1.266       .  A
C1248      C2017   1.468       .  S
O1249     Cr1263   2.006       .  S
O1250     Cr1263   1.974       .  S
O1250      C1251   1.256       .  A
C1251      C2021   1.479   1_455  S
O1252     Cr1261   1.955       .  S
O1252      C1260   1.253       .  A
O1253     Cr1261   2.005       .  S
O1253      C1254   1.266       .  A
C1254      O1255   1.265       .  A
C1254      C2070   1.466       .  S
O1255     Cr1262   1.972       .  S
O1256     Cr1262   2.018       .  S
O1256      C1257   1.269       .  A
C1257      O1258   1.261       .  A
C1257      C2030   1.481       .  S
O1258     Cr1263   1.983       .  S
O1259     Cr1263   2.022       .  S
O1259      C1260   1.265       .  A
C1260      C2050   1.465       .  S
Cr1261     O1264   1.756       .  S
Cr1262     O1264   1.764       .  S
Cr1263     O1264   1.774       .  S
O1265     Cr1283   2.019       .  S
O1265      C1273   1.271       .  A
O1266     Cr1283   1.977       .  S
O1266      C1267   1.257       .  A
C1267      O1268   1.261       .  A
C1267      C2001   1.466       .  S
O1268     Cr1284   2.005       .  S
O1269     Cr1284   1.953       .  S
O1269      C1270   1.257       .  A
C1270      O1271   1.271       .  A
C1270      C1993   1.464       .  S
O1271     Cr1285   2.024       .  S
O1272     Cr1285   1.984       .  S
O1272      C1273   1.262       .  A
C1273      C1997   1.486       .  S
O1274     Cr1283   1.958       .  S
O1274      C1282   1.255       .  A
O1275     Cr1283   2.023       .  S
O1275      C1276   1.270       .  A
C1276      O1277   1.255       .  A
C1276      C2005   1.457       .  S
O1277     Cr1284   1.954       .  S
O1278     Cr1284   2.003       .  S
C1279      O1280   1.269       .  A
C1279      C2013   1.483       .  S
O1281     Cr1285   2.028       .  S
O1281      C1282   1.268       .  A
C1282      C2009   1.469       .  S
Cr1283     O1286   1.755       .  S
Cr1284     O1286   1.753       .  S
Cr1285     O1286   1.772       .  S
O1287     Cr1305   2.015       .  S
O1287      C1295   1.269       .  A
O1288     Cr1305   1.974       .  S
O1288      C1289   1.259       .  A
C1289      O1290   1.267       .  A
C1289      C1989   1.469       .  S
O1290     Cr1306   2.026       .  S
O1291     Cr1306   1.950       .  S
O1291      C1292   1.255       .  A
C1292      O1293   1.269       .  A
C1292      C1973   1.468       .  S
O1293     Cr1307   2.022       .  S
O1294     Cr1307   2.000       .  S
O1294      C1295   1.263       .  A
C1295      C1985   1.486       .  S
O1296     Cr1305   1.968       .  S
O1296      C1304   1.258       .  A
O1297     Cr1305   2.009       .  S
O1297      C1298   1.267       .  A
C1298      O1299   1.253       .  A
C1298      C1981   1.462       .  S
O1299     Cr1306   1.962       .  S
O1300     Cr1306   2.012       .  S
C1301      O1302   1.265       .  A
C1301      C1977   1.487       .  S
O1303     Cr1307   2.026       .  S
O1303      C1304   1.270       .  A
C1304      C2010   1.470       .  S
Cr1305     O1308   1.749       .  S
Cr1306     O1308   1.758       .  S
Cr1307     O1308   1.775       .  S
O1309     Cr1327   2.056       .  S
O1309      C1317   1.286       .  A
O1310     Cr1327   2.006   1_554  S
O1310      C1311   1.266       .  A
C1311      O1312   1.252       .  A
C1311      C1949   1.479       .  S
O1312     Cr1328   1.962       .  S
O1313     Cr1328   1.983       .  S
O1313      C1314   1.248       .  A
C1314      O1315   1.248   1_554  A
C1314      C1969   1.457       .  S
O1315     Cr1329   1.959       .  S
O1316     Cr1329   1.960       .  S
O1316      C1317   1.267       .  A
C1317      C1965   1.479       .  S
O1318     Cr1327   2.043       .  S
O1318      C1326   1.259       .  A
O1319     Cr1327   2.022   1_554  S
O1319      C1320   1.271       .  A
C1320      O1321   1.254       .  A
C1320      C1953   1.476       .  S
O1321     Cr1328   1.951       .  S
O1322     Cr1328   1.990       .  S
O1322      C1323   1.271   1_554  A
C1323      O1324   1.271       .  A
C1323      C1957   1.452       .  S
O1324     Cr1329   1.971       .  S
O1325     Cr1329   1.981       .  S
O1325      C1326   1.246       .  A
C1326      C1961   1.496       .  S
Cr1327     O1330   1.774   1_556  S
Cr1328     O1330   1.790       .  S
Cr1329     O1330   1.775   1_556  S
O1331     Cr1349   1.992       .  S
O1331      C1339   1.262       .  A
O1332     Cr1349   2.067       .  S
O1332      C1333   1.282       .  A
C1333      O1334   1.252       .  A
C1333      C1933   1.477       .  S
O1334     Cr1350   1.946       .  S
O1335     Cr1350   1.991       .  S
O1335      C1336   1.258       .  A
C1336      O1337   1.257       .  A
C1336      C1945   1.452       .  S
O1337     Cr1351   1.977       .  S
O1338     Cr1351   2.013       .  S
O1338      C1339   1.269       .  A
C1339      C1941   1.481       .  S
O1340     Cr1349   2.069       .  S
O1340      C1348   1.280       .  A
O1341     Cr1349   2.004       .  S
O1341      C1342   1.265       .  A
C1342      O1343   1.258       .  A
C1342      C1937   1.476       .  S
O1343     Cr1350   1.990       .  S
O1344     Cr1350   1.966       .  S
O1344      C1345   1.258       .  A
C1345      O1346   1.272       .  A
C1345      C2006   1.464       .  S
O1346     Cr1351   2.013       .  S
O1347     Cr1351   1.974       .  S
O1347      C1348   1.258       .  A
C1348      C1962   1.507       .  S
Cr1349     O1352   1.770       .  S
Cr1350     O1352   1.766       .  S
Cr1351     O1352   1.749       .  S
O1353     Cr1371   1.963       .  S
O1353      C1361   1.258       .  A
O1354     Cr1371   1.994   1_556  S
O1354      C1355   1.264       .  A
C1355      O1356   1.269       .  A
C1355      C1921   1.480       .  S
O1356     Cr1372   2.010       .  S
O1357     Cr1372   1.977       .  S
O1357      C1358   1.254       .  A
C1358      O1359   1.260       .  A
C1358      C1914   1.472       .  S
O1359     Cr1373   2.010       .  S
O1360     Cr1373   2.033   1_554  S
O1360      C1361   1.271       .  A
C1361      C1917   1.477   1_455  S
O1362     Cr1371   1.989       .  S
O1362      C1370   1.260       .  A
O1363     Cr1371   1.977       .  S
O1363      C1364   1.259       .  A
C1364      O1365   1.256   1_554  A
C1364      C1958   1.454       .  S
O1365     Cr1372   1.965       .  S
O1366     Cr1372   1.982       .  S
C1367      O1368   1.272       .  A
C1367      C1929   1.482       .  S
O1369     Cr1373   2.007   1_554  S
O1369      C1370   1.263       .  A
C1370      C1925   1.474       .  S
Cr1371     O1374   1.770   1_554  S
Cr1372     O1374   1.780       .  S
Cr1373     O1374   1.780       .  S
O1375     Cr1393   2.012       .  S
O1375      C1383   1.265       .  A
O1376     Cr1393   1.976       .  S
O1376      C1377   1.259       .  A
C1377      O1378   1.264       .  A
C1377      C1909   1.461       .  S
O1378     Cr1394   2.008       .  S
O1379     Cr1394   1.943       .  S
O1379      C1380   1.252       .  A
C1380      O1381   1.273       .  A
C1380      C1893   1.472       .  S
O1381     Cr1395   2.039       .  S
O1382     Cr1395   2.019       .  S
O1382      C1383   1.268       .  A
C1383      C1905   1.498       .  S
O1384     Cr1393   1.964       .  S
O1384      C1392   1.259       .  A
O1385     Cr1393   2.003       .  S
O1385      C1386   1.266       .  A
C1386      O1387   1.253       .  A
C1386      C1901   1.451       .  S
O1387     Cr1394   1.952       .  S
O1388     Cr1394   2.016       .  S
C1389      O1390   1.268       .  A
C1389      C1898   1.478       .  S
O1391     Cr1395   2.048       .  S
O1391      C1392   1.275       .  A
C1392      C1926   1.487       .  S
Cr1393     O1396   1.755       .  S
Cr1394     O1396   1.761       .  S
Cr1395     O1396   1.766       .  S
O1397     Cr1415   2.011       .  S
O1397      C1405   1.267       .  A
O1398     Cr1415   2.051       .  S
O1398      C1399   1.277       .  A
C1399      O1400   1.250       .  A
C1399      C1873   1.478       .  S
O1400     Cr1416   1.942       .  S
O1401     Cr1416   2.023       .  S
O1401      C1402   1.270       .  A
C1402      O1403   1.258       .  A
C1402      C1881   1.453       .  S
O1403     Cr1417   1.961       .  S
O1404     Cr1417   1.995       .  S
O1404      C1405   1.259       .  A
C1405      C1877   1.482       .  S
O1406     Cr1415   2.041       .  S
O1406      C1414   1.275       .  A
O1407     Cr1415   1.999       .  S
O1407      C1408   1.262       .  A
C1408      O1409   1.269       .  A
C1408      C1889   1.504       .  S
O1409     Cr1416   2.017       .  S
O1410     Cr1416   1.960       .  S
O1410      C1411   1.249       .  A
C1411      O1412   1.261       .  A
C1411      C1902   1.454   1_655  S
O1412     Cr1417   1.995       .  S
O1413     Cr1417   1.948       .  S
O1413      C1414   1.258       .  A
C1414      C1885   1.468       .  S
Cr1415     O1418   1.768       .  S
Cr1416     O1418   1.766       .  S
Cr1417     O1418   1.751       .  S
O1419     Cr1437   1.994   1_455  S
O1419      C1427   1.266       .  A
O1420     Cr1437   2.023       .  S
O1420      C1421   1.266       .  A
C1421      O1422   1.252       .  A
C1421      C1857   1.468       .  S
O1422     Cr1438   1.949       .  S
O1423     Cr1438   2.024       .  S
O1423      C1424   1.269       .  A
C1424      O1425   1.261       .  A
C1424      C1865   1.471       .  S
O1425     Cr1439   1.978       .  S
O1426     Cr1439   2.011       .  S
O1426      C1427   1.266   1_655  A
C1427      C1861   1.479       .  S
O1428     Cr1437   2.014       .  S
O1428      C1436   1.267       .  A
O1429     Cr1437   1.983       .  S
O1429      C1430   1.261       .  A
C1430      O1431   1.273       .  A
C1430      C1870   1.492       .  S
O1431     Cr1438   2.027       .  S
O1432     Cr1438   1.954       .  S
O1432      C1433   1.251       .  A
C1433      O1434   1.265       .  A
C1433      C1982   1.457       .  S
O1434     Cr1439   2.014       .  S
O1435     Cr1439   1.979       .  S
O1435      C1436   1.262       .  A
C1436      C1886   1.466       .  S
Cr1437     O1440   1.770       .  S
Cr1438     O1440   1.755       .  S
Cr1439     O1440   1.755       .  S
O1441     Cr1459   1.999       .  S
O1441      C1449   1.264       .  A
O1442     Cr1459   2.028       .  S
O1442      C1443   1.272       .  A
C1443      O1444   1.258       .  A
C1443      C2133   1.474       .  S
O1444     Cr1460   1.974       .  S
O1445     Cr1460   1.981       .  S
O1445      C1446   1.258       .  A
C1446      O1447   1.261       .  A
O1447     Cr1461   1.985       .  S
O1448     Cr1461   2.006       .  S
O1448      C1449   1.264       .  A
C1449      C1978   1.483       .  S
O1450     Cr1459   2.052       .  S
O1450      C1458   1.274       .  A
O1451     Cr1459   2.008       .  S
O1451      C1452   1.269       .  A
C1452      O1453   1.259       .  A
C1452      C2022   1.473       .  S
O1453     Cr1460   1.986       .  S
O1454     Cr1460   1.975       .  S
O1454      C1455   1.264       .  A
C1455      O1456   1.261       .  A
C1455      C1850   1.455   1_655  S
O1456     Cr1461   1.982       .  S
O1457     Cr1461   1.995       .  S
O1457      C1458   1.258       .  A
C1458      C1853   1.501       .  S
Cr1459     O1462   1.769       .  S
Cr1460     O1462   1.783       .  S
Cr1461     O1462   1.766       .  S
O1463     Cr1481   1.960   1_455  S
O1463      C1471   1.254       .  A
O1464     Cr1481   2.062       .  S
O1464      C1465   1.284       .  A
C1465      O1466   1.250       .  A
C1465      C2154   1.472       .  S
O1466     Cr1482   1.934       .  S
O1467     Cr1482   2.010       .  S
O1467      C1468   1.261       .  A
C1468      O1469   1.255       .  A
O1469     Cr1483   1.980       .  S
O1470     Cr1483   2.029       .  S
O1470      C1471   1.273   1_655  A
C1471      C1897   1.479       .  S
O1472     Cr1481   2.068       .  S
O1472      C1480   1.280       .  A
O1473     Cr1481   2.013       .  S
O1473      C1474   1.265       .  A
C1474      O1475   1.263       .  A
C1474      C2101   1.492       .  S
O1475     Cr1482   2.007       .  S
O1476     Cr1482   1.937       .  S
O1476      C1477   1.252       .  A
C1477      O1478   1.275       .  A
C1477      C1846   1.446       .  S
O1478     Cr1483   2.029       .  S
O1479     Cr1483   1.973       .  S
O1479      C1480   1.256       .  A
C1480      C1854   1.502       .  S
Cr1481     O1484   1.765       .  S
Cr1482     O1484   1.759       .  S
Cr1483     O1484   1.753       .  S
O1485     Cr1503   1.966       .  S
O1485      C1493   1.259   1_545  A
O1486      C1487   1.265       .  A
C1487      O1488   1.265       .  A
C1487      C2046   1.458       .  S
O1489     Cr1504   1.989       .  S
O1489      C1490   1.259       .  A
C1490      O1491   1.259       .  A
C1490      C1913   1.473       .  S
O1491     Cr1505   2.000       .  S
O1492     Cr1505   2.035       .  S
O1492      C1493   1.272       .  A
C1493      C2146   1.474   1_465  S
O1494     Cr1503   1.989   1_565  S
O1494      C1502   1.259       .  A
C1496      O1497   1.265   1_545  A
O1497     Cr1504   1.988       .  S
O1498     Cr1504   1.947       .  S
O1498      C1499   1.256       .  A
C1499      O1500   1.274       .  A
C1499      C1942   1.489       .  S
O1500     Cr1505   2.044       .  S
O1501     Cr1505   2.012       .  S
O1501      C1502   1.264       .  A
C1502      C1841   1.475       .  S
Cr1503     O1506   1.767   1_545  S
Cr1504     O1506   1.776       .  S
Cr1505     O1506   1.779       .  S
O1507     Cr1525   2.023       .  S
O1507      C1515   1.272   1_545  A
O1508      C1509   1.262       .  A
C1509      O1510   1.255       .  A
C1509      C2026   1.472       .  S
O1511     Cr1526   1.957       .  S
O1511      C1512   1.257       .  A
C1512      O1513   1.273       .  A
C1512      C1894   1.473       .  S
O1513     Cr1527   2.032       .  S
O1514     Cr1527   1.967       .  S
O1514      C1515   1.256       .  A
C1515      C2058   1.480   1_565  S
O1516     Cr1525   1.968   1_565  S
O1516      C1524   1.258       .  A
C1518      O1519   1.256       .  A
O1519     Cr1526   1.955       .  S
O1520     Cr1526   2.017       .  S
O1520      C1521   1.269       .  A
C1521      O1522   1.259       .  A
C1521      C1862   1.482       .  S
O1522     Cr1527   1.979       .  S
O1523     Cr1527   2.040       .  S
O1523      C1524   1.272       .  A
C1524      C1842   1.487       .  S
Cr1525     O1528   1.755   1_545  S
Cr1526     O1528   1.761       .  S
Cr1527     O1528   1.772       .  S
O1529     Cr1547   2.018   1_565  S
O1529      C1537   1.269       .  A
O1530      C1531   1.258       .  A
C1531      O1532   1.256       .  A
C1531      C2126   1.458       .  S
O1533     Cr1548   1.961       .  S
O1533      C1534   1.258       .  A
C1534      O1535   1.265       .  A
C1534      C1994   1.464       .  S
O1535     Cr1549   2.010   1_556  S
O1536     Cr1549   1.991       .  S
O1536      C1537   1.261       .  A
C1537      C2165   1.489   1_565  S
O1538     Cr1547   1.961   1_565  S
O1538      C1546   1.255       .  A
C1540      O1541   1.265   1_544  A
O1541     Cr1548   1.969       .  S
O1542     Cr1548   2.018       .  S
O1542      C1543   1.268       .  A
C1543      O1544   1.264   1_556  A
C1543      C1966   1.491       .  S
O1544     Cr1549   1.996       .  S
O1545     Cr1549   2.019       .  S
O1545      C1546   1.266       .  A
C1546      C1833   1.466       .  S
Cr1547     O1550   1.762   1_545  S
Cr1548     O1550   1.760   1_556  S
Cr1549     O1550   1.775       .  S
O1551     Cr1569   2.031       .  S
O1551      C1559   1.272   1_545  A
O1552      C1553   1.258       .  A
C1553      O1554   1.266       .  A
C1553      C2106   1.463       .  S
O1555     Cr1570   1.948       .  S
O1555      C1556   1.256       .  A
C1556      O1557   1.271       .  A
C1556      C1974   1.468       .  S
O1557     Cr1571   2.027       .  S
O1558     Cr1571   1.960       .  S
O1558      C1559   1.254       .  A
C1559      C2086   1.472   1_565  S
O1560     Cr1569   1.952   1_565  S
O1560      C1568   1.255       .  A
C1562      O1563   1.249       .  A
O1563     Cr1570   1.947       .  S
O1564     Cr1570   2.027       .  S
O1564      C1565   1.273       .  A
C1565      O1566   1.254       .  A
C1565      C1878   1.483       .  S
O1566     Cr1571   1.965       .  S
O1567     Cr1571   2.030       .  S
O1567      C1568   1.270       .  A
C1568      C1834   1.466       .  S
Cr1569     O1572   1.752   1_545  S
Cr1570     O1572   1.753       .  S
Cr1571     O1572   1.770       .  S
O1573     Cr1591   2.002       .  S
O1573      C1581   1.265       .  A
O1574     Cr1591   2.030   1_554  S
O1574      C1575   1.271       .  A
C1575      O1576   1.255       .  A
C1575      C2074   1.470       .  S
O1576     Cr1592   1.957       .  S
O1577     Cr1592   1.991       .  S
O1577      C1578   1.261       .  A
C1578      O1579   1.260   1_554  A
O1579     Cr1593   1.975       .  S
O1580     Cr1593   1.999       .  S
O1580      C1581   1.264       .  A
C1581      C1930   1.475       .  S
O1582     Cr1591   2.034       .  S
O1582      C1590   1.271       .  A
O1583     Cr1591   1.995       .  S
O1583      C1584   1.265   1_556  A
C1584      O1585   1.262       .  A
C1584      C2122   1.473       .  S
O1585     Cr1592   1.998       .  S
O1586     Cr1592   1.972       .  S
O1586      C1587   1.259   1_554  A
C1587      O1588   1.263       .  A
C1587      C1830   1.458       .  S
O1588     Cr1593   1.993       .  S
O1589     Cr1593   1.962       .  S
O1589      C1590   1.256       .  A
C1590      C1825   1.472       .  S
Cr1591     O1594   1.770       .  S
Cr1592     O1594   1.758   1_554  S
Cr1593     O1594   1.750       .  S
O1595     Cr1613   1.985       .  S
O1595      C1603   1.259       .  A
O1596     Cr1613   2.015       .  S
O1596      C1597   1.267       .  A
C1597      O1598   1.255       .  A
C1597      C2054   1.465       .  S
O1598     Cr1614   1.951       .  S
O1599     Cr1614   2.007       .  S
O1599      C1600   1.263       .  A
C1600      O1601   1.259       .  A
O1601     Cr1615   1.981       .  S
O1602     Cr1615   2.019       .  S
O1602      C1603   1.269       .  A
C1603      C2014   1.487       .  S
O1604     Cr1613   2.027       .  S
O1604      C1612   1.268       .  A
O1605     Cr1613   1.992       .  S
O1605      C1606   1.263       .  A
C1606      O1607   1.271       .  A
C1606      C2042   1.494       .  S
O1607     Cr1614   2.026       .  S
O1608     Cr1614   1.958       .  S
O1608      C1609   1.260       .  A
C1609      O1610   1.265       .  A
C1609      C1837   1.451       .  S
O1610     Cr1615   2.004       .  S
O1611     Cr1615   1.962       .  S
O1611      C1612   1.255       .  A
C1612      C1826   1.469       .  S
Cr1613     O1616   1.775       .  S
Cr1614     O1616   1.763       .  S
Cr1615     O1616   1.758       .  S
O1617     Cr1635   2.025       .  S
O1617      C1625   1.273       .  A
O1618     Cr1635   1.979   1_556  S
O1618      C1619   1.260       .  A
C1619      O1620   1.267       .  A
C1619      C1922   1.481       .  S
O1620     Cr1636   2.035       .  S
O1621     Cr1636   1.950       .  S
O1621      C1622   1.258       .  A
C1622      O1623   1.267       .  A
C1622      C2034   1.463       .  S
O1623     Cr1637   2.016       .  S
O1624     Cr1637   1.978       .  S
O1624      C1625   1.258   1_556  A
C1625      C1954   1.484       .  S
O1626     Cr1635   1.974       .  S
O1626      C1634   1.258       .  A
O1627     Cr1635   2.023       .  S
O1627      C1628   1.269   1_554  A
C1628      O1629   1.253       .  A
C1628      C1818   1.449       .  S
O1629     Cr1636   1.946       .  S
O1630     Cr1636   2.021       .  S
O1630      C1631   1.270       .  A
C1631      O1632   1.263       .  A
C1631      C2170   1.492       .  S
O1632     Cr1637   1.992       .  S
O1633     Cr1637   2.022   1_554  S
O1633      C1634   1.267       .  A
C1634      C1821   1.470       .  S
Cr1635     O1638   1.754   1_554  S
Cr1636     O1638   1.757       .  S
Cr1637     O1638   1.772       .  S
O1639     Cr1657   2.019       .  S
O1639      C1647   1.271       .  A
O1640     Cr1657   1.973       .  S
O1640      C1641   1.255       .  A
C1641      O1642   1.260       .  A
C1641      C1910   1.458       .  S
O1642     Cr1658   2.001       .  S
O1643     Cr1658   1.955       .  S
O1643      C1644   1.255       .  A
C1644      O1645   1.270       .  A
C1644      C2018   1.469       .  S
O1645     Cr1659   2.032       .  S
O1646     Cr1659   2.024       .  S
O1646      C1647   1.273       .  A
C1647      C1890   1.502   1_455  S
O1648     Cr1657   1.969       .  S
O1648      C1656   1.256       .  A
O1649     Cr1657   2.018       .  S
O1649      C1650   1.272       .  A
C1650      O1651   1.254       .  A
C1650      C1813   1.465       .  S
O1651     Cr1658   1.960       .  S
O1652     Cr1658   1.997       .  S
O1652      C1653   1.261       .  A
C1653      O1654   1.273       .  A
C1653      C2078   1.489       .  S
O1654     Cr1659   2.030       .  S
O1655     Cr1659   2.027       .  S
O1655      C1656   1.268       .  A
C1656      C1822   1.473       .  S
Cr1657     O1660   1.748       .  S
Cr1658     O1660   1.761       .  S
Cr1659     O1660   1.772       .  S
O1661     Cr1679   1.983       .  S
O1661      C1669   1.261       .  A
O1662     Cr1679   2.058   1_554  S
O1662      C1663   1.281       .  A
C1663      O1664   1.252       .  A
C1663      C1874   1.479       .  S
O1664     Cr1680   1.945       .  S
O1665     Cr1680   2.006       .  S
O1665      C1666   1.259       .  A
C1666      O1667   1.260   1_554  A
C1666      C2174   1.453       .  S
O1667     Cr1681   1.965       .  S
O1668     Cr1681   2.020       .  S
O1668      C1669   1.268       .  A
C1669      C2130   1.484       .  S
O1670     Cr1679   2.054       .  S
O1670      C1678   1.276       .  A
O1671     Cr1679   2.000       .  S
O1671      C1672   1.260   1_556  A
C1672      O1673   1.263       .  A
C1672      C1918   1.488       .  S
O1673     Cr1680   1.996       .  S
O1674     Cr1680   1.967       .  S
O1674      C1675   1.255   1_554  A
C1675      O1676   1.270       .  A
C1675      C1817   1.459   1_655  S
O1676     Cr1681   2.006       .  S
O1677     Cr1681   1.952       .  S
O1677      C1678   1.254       .  A
C1678      C1810   1.480       .  S
Cr1679     O1682   1.769       .  S
Cr1680     O1682   1.766   1_554  S
Cr1681     O1682   1.747       .  S
O1683     Cr1701   1.987   1_455  S
O1683      C1691   1.260       .  A
O1684     Cr1701   2.014       .  S
O1684      C1685   1.267       .  A
C1685      O1686   1.257       .  A
C1685      C1858   1.469       .  S
O1686     Cr1702   1.965       .  S
O1687     Cr1702   1.994       .  S
O1687      C1688   1.259       .  A
C1688      O1689   1.260       .  A
C1688      C2142   1.466       .  S
O1689     Cr1703   1.982       .  S
O1690     Cr1703   2.019       .  S
O1690      C1691   1.269   1_655  A
C1691      C2037   1.489       .  S
O1692     Cr1701   2.028       .  S
O1692      C1700   1.269       .  A
O1693     Cr1701   1.996       .  S
O1693      C1694   1.266       .  A
C1694      O1695   1.266       .  A
C1694      C1998   1.482       .  S
O1695     Cr1702   2.009       .  S
O1696     Cr1702   1.972       .  S
O1696      C1697   1.264       .  A
C1697      O1698   1.265       .  A
C1697      C1805   1.466       .  S
O1698     Cr1703   2.002       .  S
O1699     Cr1703   1.980       .  S
O1699      C1700   1.257       .  A
C1700      C1809   1.479       .  S
Cr1701     O1704   1.776       .  S
Cr1702     O1704   1.765       .  S
Cr1703     O1704   1.760       .  S
O1705     Cr1723   2.021       .  S
O1705      C1713   1.269       .  A
O1706     Cr1723   1.981       .  S
O1706      C1707   1.260       .  A
C1707      O1708   1.262       .  A
C1707      C2002   1.466       .  S
O1708     Cr1724   2.002       .  S
O1709     Cr1724   1.950       .  S
O1709      C1710   1.255       .  A
C1710      O1711   1.271       .  A
C1710      C2114   1.467       .  S
O1711     Cr1725   2.025       .  S
O1712     Cr1725   1.972       .  S
O1712      C1713   1.255       .  A
C1713      C1938   1.478       .  S
O1714     Cr1723   1.948       .  S
O1714      C1722   1.254       .  A
O1715     Cr1723   2.009       .  S
O1715      C1716   1.266       .  A
C1716      O1717   1.264       .  A
C1716      C1806   1.466       .  S
O1717     Cr1724   1.968       .  S
O1718     Cr1724   2.022       .  S
O1718      C1719   1.268       .  A
C1719      O1720   1.258       .  A
C1719      C2137   1.483       .  S
O1720     Cr1725   1.978       .  S
O1721     Cr1725   2.032       .  S
O1721      C1722   1.270       .  A
C1722      C1801   1.467       .  S
Cr1723     O1726   1.758       .  S
Cr1724     O1726   1.762       .  S
Cr1725     O1726   1.774       .  S
O1727     Cr1745   2.004       .  S
O1727      C1735   1.264       .  A
O1728     Cr1745   1.985       .  S
O1728      C1729   1.261       .  A
C1729      O1730   1.264       .  A
C1729      C1990   1.471       .  S
O1730     Cr1746   2.008       .  S
O1731     Cr1746   1.958       .  S
O1731      C1732   1.256       .  A
C1732      O1733   1.265       .  A
C1732      C2094   1.465       .  S
O1733     Cr1747   2.012       .  S
O1734     Cr1747   2.015       .  S
O1734      C1735   1.269       .  A
C1735      C1869   1.488       .  S
O1736     Cr1745   1.973       .  S
O1736      C1744   1.257       .  A
O1737     Cr1745   1.985       .  S
O1737      C1738   1.261       .  A
C1738      O1739   1.257       .  A
C1738      C1797   1.444       .  S
O1739     Cr1746   1.956       .  S
O1740     Cr1746   2.017       .  S
O1740      C1741   1.270       .  A
C1741      O1742   1.269       .  A
C1741      C2062   1.499       .  S
O1742     Cr1747   2.017       .  S
O1743     Cr1747   2.017       .  S
O1743      C1744   1.265       .  A
C1744      C1802   1.468       .  S
Cr1745     O1748   1.754       .  S
Cr1746     O1748   1.762       .  S
Cr1747     O1748   1.773       .  S
O1749     Cr1767   2.032       .  S
O1749      C1757   1.270       .  A
O1750     Cr1767   2.019       .  S
O1750      C1751   1.262       .  A
C1751      O1752   1.256       .  A
C1751      C1934   1.482       .  S
O1752     Cr1768   1.979       .  S
O1753     Cr1768   1.972       .  S
O1753      C1754   1.254       .  A
C1754      O1755   1.264       .  A
C1754      C2066   1.456       .  S
O1755     Cr1769   1.995       .  S
O1756     Cr1769   1.966       .  S
O1756      C1757   1.257       .  A
C1757      C2029   1.471       .  S
O1758     Cr1767   2.020       .  S
O1758      C1766   1.269       .  A
O1759     Cr1767   2.056       .  S
O1759      C1760   1.277       .  A
C1760      O1761   1.256       .  A
C1760      C1986   1.493       .  S
O1761     Cr1768   1.952       .  S
O1762     Cr1768   1.974       .  S
O1762      C1763   1.263       .  A
C1763      O1764   1.260       .  A
C1763      C1798   1.460       .  S
O1764     Cr1769   1.975       .  S
O1765     Cr1769   1.998       .  S
O1765      C1766   1.264       .  A
C1766      C1793   1.482       .  S
Cr1767     O1770   1.771       .  S
Cr1768     O1770   1.769       .  S
Cr1769     O1770   1.763       .  S
O1771     Cr1789   1.983       .  S
O1771      C1779   1.259       .  A
O1772     Cr1789   2.023       .  S
O1772      C1773   1.273       .  A
C1773      O1774   1.261       .  A
C1773      C1950   1.484       .  S
O1774     Cr1790   1.980       .  S
O1775     Cr1790   2.043       .  S
O1775      C1776   1.269       .  A
C1776      O1777   1.255       .  A
C1776      C2082   1.482       .  S
O1777     Cr1791   1.972       .  S
O1778     Cr1791   2.034       .  S
O1778      C1779   1.273       .  A
C1779      C2098   1.496       .  S
O1780     Cr1789   2.044       .  S
O1780      C1788   1.271       .  A
O1781     Cr1789   1.994       .  S
O1781      C1782   1.263       .  A
C1782      O1783   1.272       .  A
C1782      C1906   1.500       .  S
O1783     Cr1790   2.031       .  S
O1784     Cr1790   1.952       .  S
O1784      C1785   1.255       .  A
C1785      O1786   1.272       .  A
C1785      C1814   1.461       .  S
O1786     Cr1791   2.025       .  S
O1787     Cr1791   1.972       .  S
O1787      C1788   1.257       .  A
C1788      C1794   1.495       .  S
Cr1789     O1792   1.771       .  S
Cr1790     O1792   1.778       .  S
Cr1791     O1792   1.763       .  S
C1793      C1794   1.353       .  D
C1793      H1795   1.087       .  S
C1794      H1796   1.086       .  S
C1797      C1798   1.339       .  D
C1797      H1799   1.087       .  S
C1798      H1800   1.087       .  S
C1801      C1802   1.346       .  D
C1801      H1803   1.086       .  S
C1802      H1804   1.087       .  S
C1805      C1806   1.339       .  D
C1805      H1807   1.087       .  S
C1806      H1808   1.087       .  S
C1809      C1810   1.352       .  D
C1809      H1811   1.087       .  S
C1810      H1812   1.086       .  S
C1813      C1814   1.337       .  D
C1813      H1815   1.087       .  S
C1814      H1816   1.087       .  S
C1817      C1818   1.341       .  D
C1817      H1819   1.087       .  S
C1818      H1820   1.088       .  S
C1821      C1822   1.343       .  D
C1821      H1823   1.087       .  S
C1822      H1824   1.087       .  S
C1825      C1826   1.347       .  D
C1825      H1827   1.087       .  S
C1826      H1828   1.087       .  S
C1829      C1830   1.346       .  D
C1830      H1832   1.087   1_556  S
C1833      C1834   1.347       .  D
C1833      H1835   1.087       .  S
C1834      H1836   1.087       .  S
C1837      C1838   1.346       .  D
C1837      H1839   1.086       .  S
C1841      C1842   1.350       .  D
C1841      H1843   1.087       .  S
C1842      H1844   1.086       .  S
C1845      C1846   1.333       .  D
C1845      H1847   1.087       .  S
C1846      H1848   1.087       .  S
C1849      C1850   1.336       .  D
C1850      H1852   1.088       .  S
C1853      C1854   1.359       .  D
C1853      H1855   1.086       .  S
C1854      H1856   1.086       .  S
C1857      C1858   1.346       .  D
C1857      H1859   1.087   1_655  S
C1858      H1860   1.088       .  S
C1861      C1862   1.344       .  D
C1861      H1863   1.087       .  S
C1862      H1864   1.087       .  S
C1865      C1866   1.344       .  D
C1865      H1867   1.087       .  S
C1866      H1868   1.087       .  S
C1869      C1870   1.346       .  D
C1869      H1871   1.087       .  S
C1870      H1872   1.087       .  S
C1873      C1874   1.332       .  D
C1873      H1875   1.088       .  S
C1874      H1876   1.088       .  S
C1877      C1878   1.339       .  D
C1877      H1879   1.087       .  S
C1878      H1880   1.087       .  S
C1881      C1882   1.338       .  D
C1881      H1883   1.087       .  S
C1882      H1884   1.084       .  S
C1885      C1886   1.343       .  D
C1885      H1887   1.087       .  S
C1886      H1888   1.087       .  S
C1889      C1890   1.352       .  D
C1889      H1891   1.086       .  S
C1890      H1892   1.087       .  S
C1893      C1894   1.352       .  D
C1893      H1895   1.087       .  S
C1894      H1896   1.087       .  S
C1897      C1898   1.335       .  D
C1897      H1899   1.087       .  S
C1898      H1900   1.087       .  S
C1901      C1902   1.339       .  D
C1901      H1903   1.085   1_455  S
C1902      H1904   1.087       .  S
C1905      C1906   1.351       .  D
C1905      H1907   1.087       .  S
C1906      H1908   1.086       .  S
C1909      C1910   1.343       .  D
C1909      H1911   1.087       .  S
C1910      H1912   1.087       .  S
C1913      C1914   1.338       .  D
C1913      H1915   1.087       .  S
C1914      H1916   1.087       .  S
C1917      C1918   1.347       .  D
C1917      H1919   1.087       .  S
C1918      H1920   1.086   1_554  S
C1921      C1922   1.352       .  D
C1921      H1923   1.086       .  S
C1922      H1924   1.088       .  S
C1925      C1926   1.350       .  D
C1925      H1927   1.087       .  S
C1926      H1928   1.086       .  S
C1929      C1930   1.345       .  D
C1929      H1931   1.086       .  S
C1930      H1932   1.088       .  S
C1933      C1934   1.336       .  D
C1933      H1935   1.088       .  S
C1934      H1936   1.087       .  S
C1937      C1938   1.339       .  D
C1937      H1939   1.087       .  S
C1938      H1940   1.087       .  S
C1941      C1942   1.353       .  D
C1941      H1943   1.088       .  S
C1942      H1944   1.086       .  S
C1945      C1946   1.344       .  D
C1945      H1947   1.088       .  S
C1946      H1948   1.086       .  S
C1949      C1950   1.353       .  D
C1949      H1951   1.087       .  S
C1950      H1952   1.086       .  S
C1953      C1954   1.340       .  D
C1953      H1955   1.088       .  S
C1954      H1956   1.086   1_554  S
C1957      C1958   1.349   1_556  D
C1957      H1959   1.087       .  S
C1958      H1960   1.087       .  S
C1961      C1962   1.359       .  D
C1961      H1963   1.087       .  S
C1962      H1964   1.086       .  S
C1965      C1966   1.349       .  D
C1965      H1967   1.086       .  S
C1966      H1968   1.087   1_556  S
C1969      C1970   1.347       .  D
C1969      H1971   1.086       .  S
C1970      H1972   1.089       .  S
C1973      C1974   1.348       .  D
C1973      H1975   1.087       .  S
C1974      H1976   1.087       .  S
C1977      C1978   1.348       .  D
C1977      H1979   1.087       .  S
C1978      H1980   1.087       .  S
C1981      C1982   1.341       .  D
C1981      H1983   1.087       .  S
C1982      H1984   1.086       .  S
C1985      C1986   1.355       .  D
C1985      H1987   1.087       .  S
C1986      H1988   1.086       .  S
C1989      C1990   1.347       .  D
C1989      H1991   1.088       .  S
C1990      H1992   1.084       .  S
C1993      C1994   1.344       .  D
C1993      H1995   1.087       .  S
C1994      H1996   1.087       .  S
C1997      C1998   1.345       .  D
C1997      H1999   1.087       .  S
C1998      H2000   1.087       .  S
C2001      C2002   1.349       .  D
C2001      H2003   1.088       .  S
C2002      H2004   1.087       .  S
C2005      C2006   1.340       .  D
C2005      H2007   1.087       .  S
C2006      H2008   1.087       .  S
C2009      C2010   1.346       .  D
C2009      H2011   1.087       .  S
C2010      H2012   1.087       .  S
C2013      C2014   1.343       .  D
C2013      H2015   1.087       .  S
C2014      H2016   1.086       .  S
C2017      C2018   1.344       .  D
C2017      H2019   1.087       .  S
C2018      H2020   1.087       .  S
C2021      C2022   1.337       .  D
C2021      H2023   1.086       .  S
C2022      H2024   1.088       .  S
C2025      C2026   1.353       .  D
C2025      H2027   1.087       .  S
C2026      H2028   1.087       .  S
C2029      C2030   1.343       .  D
C2029      H2031   1.086       .  S
C2030      H2032   1.087       .  S
C2033      C2034   1.344       .  D
C2033      H2035   1.087       .  S
C2034      H2036   1.087       .  S
C2037      C2038   1.344       .  D
C2037      H2039   1.086       .  S
C2038      H2040   1.087       .  S
C2041      C2042   1.349       .  D
C2041      H2043   1.087       .  S
C2042      H2044   1.086       .  S
C2045      C2046   1.350       .  D
C2045      H2047   1.089       .  S
C2046      H2048   1.086       .  S
C2049      C2050   1.346       .  D
C2049      H2051   1.087       .  S
C2050      H2052   1.087       .  S
C2053      C2054   1.346       .  D
C2053      H2055   1.087       .  S
C2054      H2056   1.087       .  S
C2057      H2059   1.087       .  S
C2061      C2062   1.353       .  D
C2061      H2063   1.086       .  S
C2062      H2064   1.087       .  S
C2065      C2066   1.346       .  D
C2065      H2067   1.089       .  S
C2066      H2068   1.087       .  S
C2069      C2070   1.338       .  D
C2069      H2071   1.087       .  S
C2070      H2072   1.087       .  S
C2073      C2074   1.347       .  D
C2073      H2075   1.087       .  S
C2074      H2076   1.087       .  S
C2077      C2078   1.342       .  D
C2077      H2079   1.086       .  S
C2078      H2080   1.087       .  S
C2081      C2082   1.351       .  D
C2081      H2083   1.087       .  S
C2082      H2084   1.087       .  S
C2085      H2087   1.086       .  S
C2089      C2090   1.351       .  D
C2089      H2091   1.086       .  S
C2090      H2092   1.087       .  S
C2093      C2094   1.342       .  D
C2093      H2095   1.087       .  S
C2094      H2096   1.088       .  S
C2097      C2098   1.346       .  D
C2097      H2099   1.087       .  S
C2098      H2100   1.087       .  S
C2101      C2102   1.348       .  D
C2101      H2103   1.087       .  S
C2102      H2104   1.086       .  S
C2105      C2106   1.345       .  D
C2105      H2107   1.085       .  S
C2106      H2108   1.088       .  S
C2109      C2110   1.342       .  D
C2109      H2111   1.087       .  S
C2110      H2112   1.087       .  S
C2113      C2114   1.350       .  D
C2113      H2115   1.087       .  S
C2114      H2116   1.087       .  S
C2117      C2118   1.346       .  D
C2117      H2119   1.086       .  S
C2118      H2120   1.087       .  S
C2121      C2122   1.342       .  D
C2121      H2123   1.087   1_554  S
C2122      H2124   1.087       .  S
C2125      C2126   1.352       .  D
C2125      H2127   1.087       .  S
C2126      H2128   1.086       .  S
C2129      C2130   1.350       .  D
C2129      H2131   1.087       .  S
C2130      H2132   1.087       .  S
C2133      C2134   1.351       .  D
C2133      H2135   1.087       .  S
C2134      H2136   1.088       .  S
C2137      C2138   1.341       .  D
C2137      H2139   1.087       .  S
C2138      H2140   1.086       .  S
C2141      C2142   1.351       .  D
C2141      H2143   1.086       .  S
C2142      H2144   1.089       .  S
C2145      H2147   1.086       .  S
C2146      H2148   1.086       .  S
C2149      C2150   1.335       .  D
C2149      H2151   1.087       .  S
C2150      H2152   1.087       .  S
C2153      C2154   1.325       .  D
C2153      H2155   1.089       .  S
C2154      H2156   1.088   1_655  S
C2157      C2158   1.337   1_554  D
C2157      H2159   1.087       .  S
C2158      H2160   1.088       .  S
C2161      C2162   1.352       .  D
C2161      H2163   1.088       .  S
C2162      H2164   1.086       .  S
C2165      H2167   1.086   1_545  S
C2166      H2168   1.086   1_554  S
C2169      C2170   1.349       .  D
C2169      H2171   1.087       .  S
C2170      H2172   1.086       .  S
C2173      C2174   1.327       .  D
C2173      H2175   1.088       .  S
C2174      H2176   1.087       .  S
