geometry optimzed in LAMMPS
_audit_creation_date              2020-12-01 
_audit_creation_method            'lammps2cif' 
_symmetry_space_group_name_H-M    'P1' 
_symmetry_Int_Tables_number       1 
_symmetry_cell_setting            triclinic 
loop_ 
_symmetry_equiv_pos_as_xyz 
  x,y,z 
_cell_length_a                    36.68424887 
_cell_length_b                    27.874599066924073 
_cell_length_c                    45.536610691555246 
_cell_angle_alpha                 89.82846294066269 
_cell_angle_beta                  89.78284703448625 
_cell_angle_gamma                 89.81956777407757 
loop_ 
_atom_site_label 
_atom_site_type_symbol 
_atom_site_fract_x 
_atom_site_fract_y 
_atom_site_fract_z 
_atom_site_charge 
Fe1        Fe  0.90727345  0.22456008  0.96639114     1.65800
Fe2        Fe  0.86529381  0.18225596  0.02634080     1.73200
Fe3        Fe  0.93550140  0.12014497  0.99710944     1.54400
O4          O  0.93335075  0.11149110  0.95084312    -0.82300
O5          O  0.90358057  0.18146830  0.05863834    -0.80600
O6          O  0.90153330  0.17455148  0.93461563    -0.84800
O7          O  0.96381074  0.22201276  0.96463229    -0.79700
O8          O  0.89236413  0.07240776  0.99856834    -0.81400
O9          O  0.86680604  0.25710450  0.02686288    -0.84200
C10         C  0.98750132  0.20262133  0.98113296     0.96600
C11         C  0.91397867  0.13260162  0.93135248     1.04000
O12         O  0.90296788  0.17549158  0.99661429    -1.13200
O13         O  0.82587434  0.18269850  0.99473509    -0.75600
O14         O  0.85127953  0.23414291  0.96346787    -0.79100
O15         O  0.98077816  0.16511062  0.99619349    -0.79800
C16         C  0.82386393  0.21071636  0.97283406     0.95500
O17         O  0.91208878  0.27774994  0.99703153    -0.77700
O18         O  0.85662435  0.10904591  0.03088061    -0.82900
C19         C  0.92737558  0.14937459  0.06353268     0.98100
C20         C  0.86472067  0.07267860  0.01544011     1.04000
O21         O  0.93919590  0.12105236  0.04349732    -0.78600
C22         C  0.88911324  0.28793565  0.01686239     1.02300
Fe23       Fe  0.86741584  0.22706655  0.78502228     1.65800
Fe24       Fe  0.91058053  0.19099370  0.72381930     1.73200
Fe25       Fe  0.84244621  0.12298568  0.75237178     1.54400
O26         O  0.84821284  0.11027127  0.79802513    -0.82300
O27         O  0.87275465  0.18677996  0.69100393    -0.80600
O28         O  0.87641216  0.17516032  0.81541206    -0.84800
O29         O  0.81151857  0.22076938  0.78789429    -0.79700
O30         O  0.88674653  0.07725156  0.74754033    -0.81400
O31         O  0.90356732  0.26560294  0.72386550    -0.84200
C32         C  0.78763326  0.20069840  0.77223848     0.96600
C33         C  0.86667153  0.13186802  0.81774643     1.04000
O34         O  0.87317306  0.18016311  0.75354126    -1.13200
O35         O  0.95019845  0.19469337  0.75540743    -0.75600
O36         O  0.92234668  0.24161505  0.78780156    -0.79100
O37         O  0.79511890  0.16436010  0.75645818    -0.79800
C38         C  0.95076839  0.22136695  0.77787857     0.95500
O39         O  0.85943029  0.28207228  0.75583027    -0.77700
O40         O  0.92455210  0.11893591  0.71928632    -0.82900
C41         C  0.84703557  0.15724885  0.68670103     0.98100
C42         C  0.91588688  0.08039854  0.73252736     1.04000
O43         O  0.83536841  0.12864543  0.70663397    -0.78600
C44         C  0.88088493  0.29473845  0.73542374     1.02300
Fe45       Fe  0.60373412  0.29296519  0.97463145     1.65800
Fe46       Fe  0.66765226  0.34183437  0.01610434     1.73200
Fe47       Fe  0.59253402  0.40606311  0.99815281     1.54400
O48         O  0.57710311  0.39887908  0.95351089    -0.82300
O49         O  0.64603603  0.36170399  0.05526630    -0.80600
O50         O  0.60487584  0.33234506  0.93770850    -0.84800
O51         O  0.54932230  0.30896011  0.98036988    -0.79700
O52         O  0.63619152  0.44851419  0.98441580    -0.81400
O53         O  0.65861937  0.26861440  0.02703286    -0.84200
C54         C  0.53258119  0.33199598  0.00014052     0.96600
C55         C  0.58770058  0.37096639  0.93277413     1.04000
O56         O  0.62125859  0.34761323  0.99661006    -1.13200
O57         O  0.69236856  0.32407927  0.97739310    -0.75600
O58         O  0.65511832  0.26599660  0.96435047    -0.79100
O59         O  0.54686378  0.36776582  0.01296065    -0.79800
C60         C  0.68631832  0.28533375  0.96406277     0.95500
O61         O  0.60236170  0.25303288  0.01193339    -0.77700
O62         O  0.68219996  0.41285822  0.00802851    -0.82900
C63         C  0.62656049  0.39808454  0.06116819     0.98100
C64         C  0.66876172  0.44829468  0.99403185     1.04000
O65         O  0.60649487  0.41938257  0.04222963    -0.78600
C66         C  0.63076367  0.24098907  0.02584325     1.02300
Fe67       Fe  0.66910518  0.29905499  0.27087545     1.65800
Fe68       Fe  0.60517250  0.34691049  0.22897766     1.73200
Fe69       Fe  0.67951067  0.41163888  0.24591688     1.54400
O70         O  0.69587389  0.40483825  0.29045025    -0.82300
O71         O  0.62729676  0.36411530  0.18982737    -0.80600
O72         O  0.66776506  0.33945353  0.30746636    -0.84800
O73         O  0.72331768  0.31562821  0.26480651    -0.79700
O74         O  0.63573971  0.45323320  0.26006217    -0.81400
O75         O  0.61441465  0.27376435  0.21914645    -0.84200
C76         C  0.74027757  0.33931451  0.24536869     0.96600
C77         C  0.68556304  0.37767185  0.31171809     1.04000
O78         O  0.65140675  0.35308778  0.24827737    -1.13200
O79         O  0.58055430  0.33093641  0.26789002    -0.75600
O80         O  0.61762194  0.27238899  0.28139145    -0.79100
O81         O  0.72545318  0.37383610  0.23145149    -0.79800
C82         C  0.58652984  0.29240283  0.28166482     0.95500
O83         O  0.67085402  0.25808674  0.23395187    -0.77700
O84         O  0.59031038  0.41833530  0.23576543    -0.82900
C85         C  0.64479812  0.40161824  0.18310383     0.98100
C86         C  0.60331715  0.45327080  0.25026159     1.04000
O87         O  0.66439442  0.42455957  0.20158210    -0.78600
C88         C  0.64243391  0.24629719  0.22004318     1.02300
Fe89       Fe  0.36486651  0.23116697  0.28444379     1.65800
Fe90       Fe  0.40560552  0.19138430  0.22330962     1.73200
Fe91       Fe  0.33730970  0.12712548  0.25354637     1.54400
O92         O  0.34053353  0.11765637  0.29982849    -0.82300
O93         O  0.36651909  0.18973869  0.19149795    -0.80600
O94         O  0.37263525  0.18028056  0.31564484    -0.84800
O95         O  0.30859166  0.22698737  0.28743082    -0.79700
O96         O  0.38126888  0.08017610  0.25119097    -0.81400
O97         O  0.40254948  0.26642345  0.22341725    -0.84200
C98         C  0.28469101  0.20878518  0.27078037     0.96600
C99         C  0.36044341  0.13830970  0.31902794     1.04000
O100        O  0.36900184  0.18308010  0.25372628    -1.13200
O101        O  0.44601189  0.19240450  0.25408912    -0.75600
O102        O  0.42064791  0.24235223  0.28622531    -0.79100
O103        O  0.29135481  0.17175598  0.25526578    -0.79800
C104        C  0.44820618  0.22013376  0.27599350     0.95500
O105        O  0.35808304  0.28544709  0.25449205    -0.77700
O106        O  0.41569425  0.11831326  0.21851060    -0.82900
C107        C  0.34411173  0.15607498  0.18673287     0.98100
C108        C  0.40848756  0.08133161  0.23382488     1.04000
O109        O  0.33289645  0.12799636  0.20716881    -0.78600
C110        C  0.38088839  0.29698033  0.23476975     1.02300
Fe111      Fe  0.41492804  0.23153174  0.46624176     1.65800
Fe112      Fe  0.37443662  0.19045241  0.52730217     1.73200
Fe113      Fe  0.44112586  0.12499074  0.49546291     1.54400
O114        O  0.43514419  0.11717192  0.44932595    -0.82300
O115        O  0.41367801  0.18495081  0.55892521    -0.80600
O116        O  0.40407341  0.18203476  0.43489126    -0.84800
O117        O  0.47097611  0.22432229  0.46140445    -0.79700
O118        O  0.39659755  0.07945122  0.49865863    -0.81400
O119        O  0.37982105  0.26501136  0.52812579    -0.84200
C120        C  0.49490874  0.20463541  0.47750059     0.96600
C121        C  0.41449893  0.13922664  0.43107525     1.04000
O122        O  0.41052564  0.18219428  0.49650342    -1.13200
O123        O  0.33380675  0.19515126  0.49668213    -0.75600
O124        O  0.35959820  0.24676850  0.46577644    -0.79100
O125        O  0.48788490  0.16762135  0.49295731    -0.79800
C126        C  0.33188917  0.22439033  0.47538257     0.95500
O127        O  0.42424148  0.28393482  0.49688931    -0.77700
O128        O  0.36216388  0.11794101  0.53109775    -0.82900
C129        C  0.43767744  0.15255002  0.56240941     0.98100
C130        C  0.36911072  0.08113765  0.51571341     1.04000
O131        O  0.44806873  0.12490571  0.54154644    -0.78600
C132        C  0.40191113  0.29523458  0.51703269     1.02300
Fe133      Fe  0.17178534  0.28878139  0.77133862     1.65800
Fe134      Fe  0.10631364  0.33982959  0.73264738     1.73200
Fe135      Fe  0.18169985  0.40286254  0.74833011     1.54400
O136        O  0.19865749  0.39452755  0.79257529    -0.82300
O137        O  0.12676463  0.35730747  0.69300714    -0.80600
O138        O  0.17318072  0.32657852  0.80881638    -0.84800
O139        O  0.22583721  0.30411459  0.76366313    -0.79700
O140        O  0.13871692  0.44509435  0.76356743    -0.81400
O141        O  0.11363469  0.26676591  0.72184495    -0.84200
C142        C  0.24216202  0.32938602  0.74465027     0.96600
C143        C  0.18932541  0.36590796  0.81345273     1.04000
O144        O  0.15352289  0.34448961  0.75051197    -1.13200
O145        O  0.08434253  0.32419536  0.77251836    -0.75600
O146        O  0.12034635  0.26316001  0.78334544    -0.79100
O147        O  0.22717173  0.36547527  0.73246837    -0.79800
C148        C  0.08994946  0.28477645  0.78543062     0.95500
O149        O  0.17103673  0.25056583  0.73340903    -0.77700
O150        O  0.09240195  0.41127009  0.73998648    -0.82900
C151        C  0.14430283  0.39484198  0.68640368     0.98100
C152        C  0.10613411  0.44600720  0.75413851     1.04000
O153        O  0.16519203  0.41661595  0.70451245    -0.78600
C154        C  0.14171471  0.23955515  0.72057760     1.02300
Fe155      Fe  0.10773888  0.29351243  0.47817930     1.65800
Fe156      Fe  0.16818467  0.34553442  0.52172968     1.73200
Fe157      Fe  0.09266913  0.40627877  0.50181484     1.54400
O158        O  0.07794318  0.39786239  0.45721286    -0.82300
O159        O  0.14431691  0.36374983  0.56003708    -0.80600
O160        O  0.10838190  0.33352557  0.44116243    -0.84800
O161        O  0.05258893  0.30674395  0.48349940    -0.79700
O162        O  0.13582367  0.44976223  0.48815563    -0.81400
O163        O  0.16034298  0.27259452  0.53315135    -0.84200
C164        C  0.03438998  0.33009193  0.50239663     0.96600
C165        C  0.08933622  0.37065868  0.43640498     1.04000
O166        O  0.12267847  0.34888380  0.50088875    -1.13200
O167        O  0.19494455  0.32945248  0.48406029    -0.75600
O168        O  0.16065603  0.26974729  0.46867510    -0.79100
O169        O  0.04755888  0.36620552  0.51572032    -0.79800
C170        C  0.19098979  0.29145835  0.46958768     0.95500
O171        O  0.10631427  0.25245805  0.51513894    -0.77700
O172        O  0.18183248  0.41685735  0.51313732    -0.82900
C173        C  0.12529200  0.40055699  0.56541810     0.98100
C174        C  0.16843798  0.45063673  0.49766714     1.04000
O175        O  0.10549936  0.42140584  0.54610336    -0.78600
C176        C  0.13335250  0.24368406  0.53144059     1.02300
Fe177      Fe  0.67249146  0.78573056  0.76706008     1.65800
Fe178      Fe  0.60877352  0.83717755  0.72665587     1.73200
Fe179      Fe  0.68138400  0.90183651  0.74789000     1.54400
O180        O  0.69640930  0.89016930  0.79235190    -0.82300
O181        O  0.63229013  0.85836640  0.68874478    -0.80600
O182        O  0.67086889  0.82078245  0.80562419    -0.84800
O183        O  0.72645044  0.80324882  0.76192643    -0.79700
O184        O  0.63605824  0.94042601  0.76278220    -0.81400
O185        O  0.61816658  0.76517288  0.71449324    -0.84200
C186        C  0.74400613  0.83135719  0.74528525     0.96600
C187        C  0.68715824  0.85923854  0.81199315     1.04000
O188        O  0.65446152  0.84221729  0.74700794    -1.13200
O189        O  0.58365340  0.81733185  0.76468356    -0.75600
O190        O  0.62114565  0.75802560  0.77643790    -0.79100
O191        O  0.72915865  0.86775161  0.73317591    -0.79800
C192        C  0.59024661  0.77840364  0.77791688     0.95500
O193        O  0.67483050  0.74976274  0.72828154    -0.77700
O194        O  0.59272694  0.90749991  0.73534275    -0.82900
C195        C  0.64845890  0.89772192  0.68408099     0.98100
C196        C  0.60417116  0.94091227  0.75183056     1.04000
O197        O  0.66714783  0.91926864  0.70380965    -0.78600
C198        C  0.64642239  0.73825511  0.71434415     1.02300
Fe199      Fe  0.60274008  0.79327464  0.47920280     1.65800
Fe200      Fe  0.66559260  0.84431314  0.52075424     1.73200
Fe201      Fe  0.59202262  0.90811681  0.50032116     1.54400
O202        O  0.57705610  0.89820353  0.45583171    -0.82300
O203        O  0.64247215  0.86403888  0.55907034    -0.80600
O204        O  0.60384809  0.83026976  0.44093261    -0.84800
O205        O  0.54823448  0.81011339  0.48453525    -0.79700
O206        O  0.63633652  0.94851549  0.48592353    -0.81400
O207        O  0.65672231  0.77182941  0.53243792    -0.84200
C208        C  0.53113050  0.83593325  0.50285857     0.96600
C209        C  0.58678980  0.86886538  0.43552338     1.04000
O210        O  0.61990291  0.84912256  0.50031439    -1.13200
O211        O  0.69078322  0.82632079  0.48254032    -0.75600
O212        O  0.65490979  0.76615785  0.47028596    -0.79100
O213        O  0.54562453  0.87208083  0.51509977    -0.79800
C214        C  0.68588669  0.78638348  0.47029032     0.95500
O215        O  0.60064892  0.75536681  0.51744367    -0.77700
O216        O  0.68048882  0.91521177  0.51263282    -0.82900
C217        C  0.62455866  0.90199545  0.56409033     0.98100
C218        C  0.66821248  0.94929315  0.49684254     1.04000
O219        O  0.60571576  0.92375928  0.54446941    -0.78600
C220        C  0.62875711  0.74450147  0.53207111     1.02300
Fe221      Fe  0.41605299  0.71754711  0.96345428     1.65800
Fe222      Fe  0.37081191  0.68006545  0.02281751     1.73200
Fe223      Fe  0.44023112  0.61310609  0.99618947     1.54400
O224        O  0.43630720  0.60213725  0.94991602    -0.82300
O225        O  0.40737032  0.67723609  0.05621687    -0.80600
O226        O  0.40641624  0.66653543  0.93287818    -0.84800
O227        O  0.47187046  0.70873602  0.96023681    -0.79700
O228        O  0.39600548  0.56688355  0.99913486    -0.81400
O229        O  0.37670842  0.75469001  0.02219716    -0.84200
C230        C  0.49465553  0.69188107  0.97837853     0.96600
C231        C  0.41701345  0.62350701  0.93032099     1.04000
O232        O  0.40928785  0.66982998  0.99430511    -1.13200
O233        O  0.33285221  0.68294069  0.99011884    -0.75600
O234        O  0.36126778  0.73479489  0.96104751    -0.79100
O235        O  0.48696132  0.65587538  0.99443452    -0.79800
C236        C  0.33246693  0.71421858  0.96991326     0.95500
O237        O  0.42451572  0.77081315  0.99371597    -0.77700
O238        O  0.35812537  0.60783264  0.02785830    -0.82900
C239        C  0.43278970  0.64763084  0.06165044     0.98100
C240        C  0.36698875  0.56970515  0.01437560     1.04000
O241        O  0.44497291  0.61790834  0.04249226    -0.78600
C242        C  0.40063112  0.78367415  0.01233646     1.02300
Fe243      Fe  0.36890484  0.72161037  0.78582288     1.65800
Fe244      Fe  0.40896402  0.68605593  0.72271534     1.73200
Fe245      Fe  0.34103316  0.61949923  0.75220195     1.54400
O246        O  0.34564222  0.60613483  0.79804995    -0.82300
O247        O  0.37029362  0.68390486  0.69063202    -0.80600
O248        O  0.37598605  0.66865601  0.81599266    -0.84800
O249        O  0.31264031  0.71818606  0.78826511    -0.79700
O250        O  0.38479836  0.57307975  0.74793565    -0.81400
O251        O  0.40344258  0.76073205  0.72304179    -0.84200
C252        C  0.28839392  0.69948987  0.77217658     0.96600
C253        C  0.36446567  0.62615941  0.81818646     1.04000
O254        O  0.37271882  0.67572433  0.75347870    -1.13200
O255        O  0.44961223  0.68783535  0.75312089    -0.75600
O256        O  0.42458368  0.73185437  0.78853431    -0.79100
O257        O  0.29489388  0.66320406  0.75600679    -0.79800
C258        C  0.45190258  0.71145710  0.77673024     0.95500
O259        O  0.36269372  0.77847942  0.75761568    -0.77700
O260        O  0.42108112  0.61346184  0.71755189    -0.82900
C261        C  0.34629574  0.65229616  0.68586663     0.98100
C262        C  0.41288774  0.57551457  0.73162331     1.04000
O263        O  0.33485449  0.62379463  0.70598838    -0.78600
C264        C  0.38219784  0.79031080  0.73578934     1.02300
Fe265      Fe  0.10929952  0.78916891  0.97921898     1.65800
Fe266      Fe  0.16814768  0.83835893  0.02503618     1.73200
Fe267      Fe  0.09500715  0.90133083  0.00352387     1.54400
O268        O  0.07970637  0.89353033  0.95899859    -0.82300
O269        O  0.14011373  0.85311263  0.06204022    -0.80600
O270        O  0.11056263  0.82987739  0.94264668    -0.84800
O271        O  0.05437915  0.80277050  0.98452777    -0.79700
O272        O  0.13952186  0.94287888  0.98997466    -0.81400
O273        O  0.16090786  0.76545350  0.03429807    -0.84200
C274        C  0.03634816  0.82520183  0.00394108     0.96600
C275        C  0.09146213  0.86697055  0.93804540     1.04000
O276        O  0.12422866  0.84341742  0.00245360    -1.13200
O277        O  0.19744043  0.82382265  0.98820206    -0.75600
O278        O  0.16228285  0.76675409  0.96991551    -0.79100
O279        O  0.04947316  0.86132690  0.01746861    -0.79800
C280        C  0.19294482  0.78741291  0.97216305     0.95500
O281        O  0.10707719  0.74691793  0.01562652    -0.77700
O282        O  0.18169161  0.91025115  0.01909715    -0.82900
C283        C  0.12666062  0.89396454  0.06709786     0.98100
C284        C  0.17074312  0.94388686  0.00229623     1.04000
O285        O  0.10890930  0.91732150  0.04760245    -0.78600
C286        C  0.13392786  0.73706888  0.03184718     1.02300
Fe287      Fe  0.16967730  0.80505485  0.27409563     1.65800
Fe288      Fe  0.11128445  0.85391749  0.22710557     1.73200
Fe289      Fe  0.18324717  0.91758769  0.24998487     1.54400
O290        O  0.19827628  0.90963241  0.29447847    -0.82300
O291        O  0.13943919  0.87002405  0.19031705    -0.80600
O292        O  0.16762559  0.84592010  0.31062746    -0.84800
O293        O  0.22485665  0.81924183  0.26874892    -0.79700
O294        O  0.13811312  0.95769545  0.26327180    -0.81400
O295        O  0.11977044  0.78076506  0.21775928    -0.84200
C296        C  0.24246641  0.84250922  0.24932753     0.96600
C297        C  0.18670489  0.88283313  0.31535204     1.04000
O298        O  0.15472309  0.85915347  0.25040925    -1.13200
O299        O  0.08100518  0.83841304  0.26332900    -0.75600
O300        O  0.11626566  0.78196285  0.28275059    -0.79100
O301        O  0.22908500  0.87902400  0.23631285    -0.79800
C302        C  0.08520103  0.80161035  0.27920166     0.95500
O303        O  0.17296159  0.76248725  0.23803645    -0.77700
O304        O  0.09691878  0.92572218  0.23317318    -0.82900
C305        C  0.15559277  0.90918038  0.18549710     0.98100
C306        C  0.10712526  0.95856387  0.25069264     1.04000
O307        O  0.17106147  0.93330719  0.20568575    -0.78600
C308        C  0.14681225  0.75234624  0.22119057     1.02300
Fe309      Fe  0.86035604  0.73045156  0.28745594     1.65800
Fe310      Fe  0.90175086  0.69280030  0.22625565     1.73200
Fe311      Fe  0.83591934  0.62473865  0.25708750     1.54400
O312        O  0.84178754  0.61613642  0.30337711    -0.82300
O313        O  0.86308730  0.68683064  0.19430981    -0.80600
O314        O  0.87298218  0.68045301  0.31816927    -0.84800
O315        O  0.80484163  0.72004780  0.29302352    -0.79700
O316        O  0.88082740  0.57971898  0.25340960    -0.81400
O317        O  0.89362438  0.76690368  0.22578888    -0.84200
C318        C  0.78119419  0.70219813  0.27607057     0.96600
C319        C  0.86224161  0.63779588  0.32187595     1.04000
O320        O  0.86583348  0.68230415  0.25680404    -1.13200
O321        O  0.94236991  0.69875479  0.25689756    -0.75600
O322        O  0.91509581  0.74921777  0.28745763    -0.79100
O323        O  0.78869498  0.66664573  0.25964270    -0.79800
C324        C  0.94367462  0.72928437  0.27743181     0.95500
O325        O  0.84871759  0.78281417  0.25721252    -0.77700
O326        O  0.91571999  0.62081683  0.22233976    -0.82900
C327        C  0.83970491  0.65408983  0.19025361     0.98100
C328        C  0.90849503  0.58275200  0.23660695     1.04000
O329        O  0.82922900  0.62593425  0.21090393    -0.78600
C330        C  0.87024286  0.79558047  0.23684249     1.02300
Fe331      Fe  0.90953413  0.73091813  0.47115465     1.65800
Fe332      Fe  0.87089684  0.68822314  0.53265863     1.73200
Fe333      Fe  0.93943905  0.62599603  0.50025798     1.54400
O334        O  0.93322123  0.61671931  0.45426635    -0.82300
O335        O  0.91132603  0.68658125  0.56338118    -0.80600
O336        O  0.90275307  0.68154183  0.43909680    -0.84800
O337        O  0.96582173  0.72934943  0.46809207    -0.79700
O338        O  0.89610487  0.57871592  0.50388029    -0.81400
O339        O  0.87226029  0.76337064  0.53315293    -0.84200
C340        C  0.99099379  0.70892101  0.48260033     0.96600
C341        C  0.91372377  0.63902901  0.43535072     1.04000
O342        O  0.90691446  0.68155497  0.50137150    -1.13200
O343        O  0.82946154  0.68958087  0.50279511    -0.75600
O344        O  0.85337084  0.73973204  0.46993357    -0.79100
O345        O  0.98540684  0.67012022  0.49677609    -0.79800
C346        C  0.82636735  0.71708007  0.48072465     0.95500
O347        O  0.91557019  0.78408167  0.50150900    -0.77700
O348        O  0.86169051  0.61481305  0.53725280    -0.82900
C349        C  0.93648219  0.65569523  0.56687762     0.98100
C350        C  0.86865773  0.57899039  0.52094118     1.04000
O351        O  0.94713022  0.62768322  0.54626673    -0.78600
C352        C  0.89313186  0.79457059  0.52163031     1.02300
Fe353      Fe  0.86331185  0.06246054  0.46700237     1.65800
Fe354      Fe  0.90460359  0.10157078  0.52775222     1.73200
Fe355      Fe  0.83668288  0.16711726  0.49797821     1.54400
O356        O  0.83933938  0.17618041  0.45182348    -0.82300
O357        O  0.86542417  0.10427275  0.55969685    -0.80600
O358        O  0.87147218  0.11332747  0.43579633    -0.84800
O359        O  0.80703093  0.06823747  0.46446595    -0.79700
O360        O  0.88137388  0.21267158  0.49946166    -0.81400
O361        O  0.90036036  0.02699686  0.52809182    -0.84200
C362        C  0.78356083  0.08653630  0.48168800     0.96600
C363        C  0.85913598  0.15535211  0.43249730     1.04000
O364        O  0.86800388  0.11052372  0.49759214    -1.13200
O365        O  0.94517364  0.09853163  0.49681192    -0.75600
O366        O  0.91903173  0.04969220  0.46477237    -0.79100
O367        O  0.79047574  0.12347684  0.49708773    -0.79800
C368        C  0.94708578  0.06997445  0.47523060     0.95500
O369        O  0.85600702  0.00827176  0.49712502    -0.77700
O370        O  0.91573593  0.17438821  0.53207512    -0.82900
C371        C  0.84199712  0.13699291  0.56421446     0.98100
C372        C  0.90909343  0.21085374  0.51613471     1.04000
O373        O  0.83192530  0.16633447  0.54415378    -0.78600
C374        C  0.87819132  0.99693203  0.51726714     1.02300
Fe375      Fe  0.90456636  0.06031925  0.28451024     1.65800
Fe376      Fe  0.85933486  0.10367858  0.22653451     1.73200
Fe377      Fe  0.93107700  0.16534623  0.25346938     1.54400
O378        O  0.92734805  0.17531350  0.29955779    -0.82300
O379        O  0.89580983  0.10540432  0.19245696    -0.80600
O380        O  0.89889760  0.10993892  0.31656889    -0.84800
O381        O  0.96090928  0.06294991  0.28545180    -0.79700
O382        O  0.88858954  0.21425200  0.25116153    -0.81400
O383        O  0.86133268  0.02873770  0.22604304    -0.84200
C384        C  0.98453264  0.08376355  0.26960802     0.96600
C385        C  0.90896436  0.15303474  0.31927446     1.04000
O386        O  0.89870133  0.11005766  0.25470616    -1.13200
O387        O  0.82178935  0.10262700  0.26001356    -0.75600
O388        O  0.84902580  0.04916521  0.28877891    -0.79100
O389        O  0.97714912  0.12143776  0.25498463    -0.79800
C390        C  0.82096626  0.07271813  0.28105989     0.95500
O391        O  0.90907913  0.00820093  0.25319110    -0.77700
O392        O  0.84959322  0.17670987  0.22219614    -0.82900
C393        C  0.92186181  0.13432169  0.18742176     0.98100
C394        C  0.86002128  0.21401710  0.23558865     1.04000
O395        O  0.93536839  0.16145673  0.20727443    -0.78600
C396        C  0.88427788  0.99779618  0.23505045     1.02300
Fe397      Fe  0.10527851  0.99276284  0.77561219     1.65800
Fe398      Fe  0.17443346  0.94388962  0.73954219     1.73200
Fe399      Fe  0.09739932  0.88029458  0.74985470     1.54400
O400        O  0.07921032  0.88552274  0.79406780    -0.82300
O401        O  0.15979121  0.92396925  0.69867663    -0.80600
O402        O  0.10363850  0.95291523  0.81250674    -0.84800
O403        O  0.05163296  0.97575398  0.76791571    -0.79700
O404        O  0.13921375  0.83527276  0.76447028    -0.81400
O405        O  0.16493223  0.01596820  0.72707250    -0.84200
C406        C  0.03722787  0.95471306  0.74643039     0.96600
C407        C  0.08799066  0.91267375  0.81572953     1.04000
O408        O  0.12564374  0.93809839  0.75457218    -1.13200
O409        O  0.19219948  0.96132450  0.78050027    -0.75600
O410        O  0.15520182  0.02208476  0.78791574    -0.79100
O411        O  0.05310534  0.92002953  0.73354032    -0.79800
C412        C  0.18608630  0.00234903  0.79087296     0.95500
O413        O  0.10678672  0.03170831  0.73781978    -0.77700
O414        O  0.18896301  0.87359882  0.74877798    -0.82900
C415        C  0.13954997  0.89025163  0.68992596     0.98100
C416        C  0.17327777  0.83661940  0.75908661     1.04000
O417        O  0.11546418  0.87016249  0.70625383    -0.78600
C418        C  0.13636360  0.04235130  0.72485770     1.02300
Fe419      Fe  0.17226204  0.99781882  0.48098147     1.65800
Fe420      Fe  0.10998051  0.94476077  0.52314596     1.73200
Fe421      Fe  0.18646168  0.88404461  0.50394881     1.54400
O422        O  0.20067445  0.89241522  0.45926944    -0.82300
O423        O  0.13260740  0.92463611  0.56164422    -0.80600
O424        O  0.17324591  0.95949844  0.44336510    -0.84800
O425        O  0.22706007  0.98475612  0.48667723    -0.79700
O426        O  0.14330589  0.84017760  0.49091308    -0.81400
O427        O  0.11740267  0.01728975  0.53514718    -0.84200
C428        C  0.24536837  0.95987115  0.50464485     0.96600
C429        C  0.19029924  0.92061888  0.43862059     1.04000
O430        O  0.15637082  0.94158885  0.50289860    -1.13200
O431        O  0.08421976  0.96283563  0.48523222    -0.75600
O432        O  0.11981950  0.02230297  0.47108134    -0.79100
O433        O  0.23213789  0.92313456  0.51741820    -0.79800
C434        C  0.08898511  0.00186896  0.47174338     0.95500
O435        O  0.17242900  0.03706705  0.51854842    -0.77700
O436        O  0.09617072  0.87414023  0.51407355    -0.82900
C437        C  0.15362855  0.88981652  0.56742178     0.98100
C438        C  0.11018565  0.83994100  0.49946040     1.04000
O439        O  0.17423092  0.86979020  0.54833136    -0.78600
C440        C  0.14445535  0.04611253  0.53394262     1.02300
Fe441      Fe  0.67315988  0.98646326  0.97244263     1.65800
Fe442      Fe  0.60710617  0.93855081  0.01282910     1.73200
Fe443      Fe  0.68413013  0.87508727  0.00065438     1.54400
O444        O  0.70083445  0.87782152  0.95601767    -0.82300
O445        O  0.62567459  0.92325932  0.05348963    -0.80600
O446        O  0.67569738  0.94433365  0.93665460    -0.84800
O447        O  0.72745511  0.97245352  0.98055816    -0.79700
O448        O  0.64204755  0.82989534  0.98776201    -0.81400
O449        O  0.61470980  0.01239592  0.02208690    -0.84200
C450        C  0.74375816  0.94960632  0.00065693     0.96600
C451        C  0.69224270  0.90457956  0.93405409     1.04000
O452        O  0.65505052  0.93274587  0.99568388    -1.13200
O453        O  0.58578712  0.95163979  0.97239860    -0.75600
O454        O  0.62167396  0.01143803  0.95976413    -0.79100
O455        O  0.72896565  0.91493967  0.01433721    -0.79800
C456        C  0.59095824  0.99068941  0.95910116     0.95500
O457        O  0.67144748  0.02938497  0.00846035    -0.77700
O458        O  0.59336416  0.86685708  0.00656122    -0.82900
C459        C  0.64636287  0.88981627  0.06229779     0.98100
C460        C  0.60847020  0.83057663  0.99476093     1.04000
O461        O  0.66855025  0.86736980  0.04532287    -0.78600
C462        C  0.64238790  0.04039935  0.02190357     1.02300
Fe463      Fe  0.60193306  0.99741563  0.27251652     1.65800
Fe464      Fe  0.67010890  0.94550426  0.23641529     1.73200
Fe465      Fe  0.59143170  0.88437662  0.24757370     1.54400
O466        O  0.57438413  0.88962546  0.29212953    -0.82300
O467        O  0.65425046  0.92593244  0.19560550    -0.80600
O468        O  0.59798821  0.95810066  0.30954606    -0.84800
O469        O  0.54801284  0.98436432  0.26378598    -0.79700
O470        O  0.63278235  0.83832615  0.26161218    -0.81400
O471        O  0.66323721  0.01836199  0.22412250    -0.84200
C472        C  0.53144112  0.95944193  0.24504113     0.96600
C473        C  0.58235368  0.91805697  0.31337495     1.04000
O474        O  0.62093092  0.94169332  0.25171755    -1.13200
O475        O  0.68922229  0.96257806  0.27706908    -0.75600
O476        O  0.65229031  0.02307743  0.28598173    -0.79100
O477        O  0.54630911  0.92358454  0.23261860    -0.79800
C478        C  0.68295147  0.00271464  0.28871218     0.95500
O479        O  0.60565630  0.03674946  0.23497151    -0.77700
O480        O  0.68327919  0.87478816  0.24604142    -0.82900
C481        C  0.63221634  0.89424785  0.18671907     0.98100
C482        C  0.66692798  0.83868527  0.25680614     1.04000
O483        O  0.60794677  0.87492099  0.20330970    -0.78600
C484        C  0.63571495  0.04667344  0.22256723     1.02300
Fe485      Fe  0.36851769  0.05315607  0.96420668     1.65800
Fe486      Fe  0.41276942  0.09240667  0.02406743     1.73200
Fe487      Fe  0.34250599  0.15700861  0.99658923     1.54400
O488        O  0.34397661  0.16739192  0.95042282    -0.82300
O489        O  0.37578698  0.09589411  0.05818395    -0.80600
O490        O  0.37469655  0.10442629  0.93290291    -0.84800
O491        O  0.31190521  0.05734034  0.96359555    -0.79700
O492        O  0.38595740  0.20429266  0.99799679    -0.81400
O493        O  0.40867710  0.01731947  0.02442435    -0.84200
C494        C  0.28918323  0.07576208  0.98140227     0.96600
C495        C  0.36279559  0.14679678  0.93035819     1.04000
O496        O  0.37444102  0.10098342  0.99507330    -1.13200
O497        O  0.45151235  0.08960844  0.99143644    -0.75600
O498        O  0.42411275  0.04113279  0.95980506    -0.79100
O499        O  0.29678734  0.11266498  0.99653318    -0.79800
C500        C  0.45234712  0.06243762  0.96914825     0.95500
O501        O  0.36345734  0.99874407  0.99415196    -0.77700
O502        O  0.42394966  0.16551530  0.02772346    -0.82900
C503        C  0.35160041  0.12775486  0.06297690     0.98100
C504        C  0.41452154  0.20307696  0.01370012     1.04000
O505        O  0.33930789  0.15499167  0.04264799    -0.78600
C506        C  0.38655692  0.98710941  0.01352082     1.02300
Fe507      Fe  0.40680420  0.05776998  0.78277489     1.65800
Fe508      Fe  0.36550104  0.09900086  0.72223093     1.73200
Fe509      Fe  0.43612880  0.16067475  0.75107913     1.54400
O510        O  0.43112189  0.17185722  0.79718437    -0.82300
O511        O  0.40379166  0.09982664  0.68956645    -0.80600
O512        O  0.39997175  0.10859773  0.81385529    -0.84800
O513        O  0.46317860  0.05950455  0.78534799    -0.79700
O514        O  0.39372796  0.20941148  0.74763646    -0.81400
O515        O  0.36795299  0.02375911  0.72229164    -0.84200
C516        C  0.48727923  0.07751131  0.76865325     0.96600
C517        C  0.41154882  0.15090739  0.81674180     1.04000
O518        O  0.40310673  0.10606752  0.75190791    -1.13200
O519        O  0.32579060  0.09916449  0.75398405    -0.75600
O520        O  0.35093894  0.04814057  0.78549183    -0.79100
O521        O  0.48126387  0.11534583  0.75376855    -0.79800
C522        C  0.32372433  0.07211003  0.77631906     0.95500
O523        O  0.41272257  0.00410795  0.75276488    -0.77700
O524        O  0.35602232  0.17218115  0.71737059    -0.82900
C525        C  0.43029785  0.12803741  0.68499838     0.98100
C526        C  0.36522856  0.20894047  0.73195005     1.04000
O527        O  0.44254541  0.15611836  0.70491196    -0.78600
C528        C  0.39027703  0.99326665  0.73288893     1.02300
Fe529      Fe  0.17114185  0.49004951  0.97676051     1.65800
Fe530      Fe  0.10600931  0.44165411  0.01774898     1.73200
Fe531      Fe  0.18184347  0.37742779  0.00244012     1.54400
O532        O  0.19648667  0.38229409  0.95747253    -0.82300
O533        O  0.12614549  0.42399880  0.05739617    -0.80600
O534        O  0.17140300  0.45015983  0.93994606    -0.84800
O535        O  0.22555738  0.47460078  0.98279266    -0.79700
O536        O  0.13833606  0.33350784  0.99023515    -0.81400
O537        O  0.11496766  0.51402044  0.02831185    -0.84200
C538        C  0.24256330  0.45084720  0.00207268     0.96600
C539        C  0.18732005  0.41017407  0.93618157     1.04000
O540        O  0.15315843  0.43558833  0.99923510    -1.13200
O541        O  0.08320353  0.45751300  0.97824560    -0.75600
O542        O  0.11966430  0.51711065  0.96621636    -0.79100
O543        O  0.22796734  0.41583045  0.01559154    -0.79800
C544        C  0.08868860  0.49711824  0.96566494     0.95500
O545        O  0.17169778  0.52982224  0.01398647    -0.77700
O546        O  0.09110932  0.37123187  0.01079188    -0.82900
C547        C  0.14747512  0.39059363  0.06513912     0.98100
C548        C  0.10513559  0.33480375  0.99847813     1.04000
O549        O  0.16849077  0.36819976  0.04727411    -0.78600
C550        C  0.14337804  0.54046245  0.02856955     1.02300
Fe551      Fe  0.10371647  0.50416404  0.27518966     1.65800
Fe552      Fe  0.17084139  0.45378265  0.23690294     1.73200
Fe553      Fe  0.09389119  0.39117291  0.24982211     1.54400
O554        O  0.07621017  0.39645006  0.29386851    -0.82300
O555        O  0.15333448  0.43568208  0.19638721    -0.80600
O556        O  0.10044964  0.46392297  0.31210893    -0.84800
O557        O  0.04979542  0.48983978  0.26646488    -0.79700
O558        O  0.13604357  0.34672501  0.26432440    -0.81400
O559        O  0.16317619  0.52652616  0.22555220    -0.84200
C560        C  0.03367671  0.46529376  0.24718048     0.96600
C561        C  0.08442373  0.42397495  0.31538395     1.04000
O562        O  0.12255691  0.44913151  0.25356790    -1.13200
O563        O  0.19105891  0.46955290  0.27728571    -0.75600
O564        O  0.15472052  0.53003173  0.28790294    -0.79100
O565        O  0.04887241  0.42989727  0.23450606    -0.79800
C566        C  0.18566130  0.50975146  0.28909591     0.95500
O567        O  0.10621001  0.54490119  0.23806989    -0.77700
O568        O  0.18470061  0.38287026  0.24507814    -0.82900
C569        C  0.13278751  0.40167102  0.18850986     0.98100
C570        C  0.16962428  0.34702563  0.25727537     1.04000
O571        O  0.11053353  0.38062426  0.20598527    -0.78600
C572        C  0.13552381  0.55461348  0.22460937     1.02300
Fe573      Fe  0.86604772  0.55671068  0.96911174     1.65800
Fe574      Fe  0.90503131  0.59417666  0.03138408     1.73200
Fe575      Fe  0.83911387  0.66108629  0.99988613     1.54400
O576        O  0.84358877  0.67030322  0.95368328    -0.82300
O577        O  0.86511429  0.59804916  0.06270091    -0.80600
O578        O  0.87636515  0.60756998  0.93847063    -0.84800
O579        O  0.81001071  0.56388735  0.96486344    -0.79700
O580        O  0.88437804  0.70534986  0.00240362    -0.81400
O581        O  0.89922065  0.51950089  0.03143725    -0.84200
C582        C  0.78574387  0.58260180  0.98119555     0.96600
C583        C  0.86409385  0.64948847  0.93479307     1.04000
O584        O  0.86974727  0.60400220  0.00025292    -1.13200
O585        O  0.94642901  0.59081953  0.00136870    -0.75600
O586        O  0.92164333  0.54276547  0.96823822    -0.79100
O587        O  0.79242504  0.61857423  0.99750151    -0.79800
C588        C  0.94899896  0.56443937  0.97888107     0.95500
O589        O  0.85658184  0.50265200  0.99856694    -0.77700
O590        O  0.91736673  0.66686519  0.03577760    -0.82900
C591        C  0.84213740  0.63148990  0.06674475     0.98100
C592        C  0.91185774  0.70304814  0.01931151     1.04000
O593        O  0.83260270  0.66017277  0.04610624    -0.78600
C594        C  0.87714516  0.49030948  0.01952422     1.02300
Fe595      Fe  0.90995039  0.56053702  0.78504554     1.65800
Fe596      Fe  0.87018283  0.60402140  0.72436204     1.73200
Fe597      Fe  0.93912064  0.66544178  0.75583318     1.54400
O598        O  0.93394797  0.67366680  0.80187809    -0.82300
O599        O  0.91000210  0.60657543  0.69270437    -0.80600
O600        O  0.90246929  0.60980110  0.81714575    -0.84800
O601        O  0.96613058  0.56290389  0.78830404    -0.79700
O602        O  0.89596875  0.71354132  0.75303100    -0.81400
O603        O  0.87269238  0.52897026  0.72335227    -0.84200
C604        C  0.99069849  0.58242003  0.77277256     0.96600
C605        C  0.91449432  0.65171487  0.82100737     1.04000
O606        O  0.90661952  0.61024913  0.75504614    -1.13200
O607        O  0.82904452  0.60169541  0.75513051    -0.75600
O608        O  0.85419293  0.55026581  0.78655686    -0.79100
O609        O  0.98472146  0.62048940  0.75802272    -0.79800
C610        C  0.82670329  0.57286876  0.77667552     0.95500
O611        O  0.91662085  0.50795436  0.75424869    -0.77700
O612        O  0.86057907  0.67745695  0.72042968    -0.82900
C613        C  0.93522604  0.63723214  0.68919077     0.98100
C614        C  0.86864183  0.71365377  0.73597041     1.04000
O615        O  0.94608838  0.66458412  0.70988982    -0.78600
C616        C  0.89423348  0.49778709  0.73417586     1.02300
Fe617      Fe  0.60701990  0.49251426  0.76798313     1.65800
Fe618      Fe  0.67328855  0.43823344  0.73054881     1.73200
Fe619      Fe  0.59499752  0.37837541  0.74500941     1.54400
O620        O  0.57894287  0.38607539  0.78905151    -0.82300
O621        O  0.65518098  0.41695472  0.69086544    -0.80600
O622        O  0.60347925  0.45443699  0.80576395    -0.84800
O623        O  0.55291686  0.47956275  0.76002729    -0.79700
O624        O  0.63675209  0.33297144  0.75924081    -0.81400
O625        O  0.66635033  0.51022020  0.71725440    -0.84200
C626        C  0.53565343  0.45387282  0.74205947     0.96600
C627        C  0.58787186  0.41439647  0.80991601     1.04000
O628        O  0.62490885  0.43571343  0.74749763    -1.13200
O629        O  0.69466232  0.45728615  0.77003502    -0.75600
O630        O  0.65812924  0.51793113  0.78016390    -0.79100
O631        O  0.54984639  0.41722047  0.73002655    -0.79800
C632        C  0.68884084  0.49730406  0.78201115     0.95500
O633        O  0.60991282  0.53104215  0.73001643    -0.77700
O634        O  0.68646042  0.36791788  0.74089666    -0.82900
C635        C  0.63257616  0.38496482  0.68353432     0.98100
C636        C  0.67059594  0.33267626  0.75309207     1.04000
O637        O  0.60965651  0.36598280  0.70122327    -0.78600
C638        C  0.63954249  0.53964033  0.71660919     1.02300
Fe639      Fe  0.67424470  0.49930111  0.47647065     1.65800
Fe640      Fe  0.60923742  0.44648653  0.51556302     1.73200
Fe641      Fe  0.68545559  0.38465945  0.49954108     1.54400
O642        O  0.70257521  0.39264031  0.45556722    -0.82300
O643        O  0.63008517  0.42922364  0.55491612    -0.80600
O644        O  0.67802670  0.46115155  0.43885239    -0.84800
O645        O  0.72850139  0.48600386  0.48558164    -0.79700
O646        O  0.64296515  0.34158134  0.48444004    -0.81400
O647        O  0.61510011  0.51928476  0.52681818    -0.84200
C648        C  0.74464061  0.46029466  0.50452180     0.96600
C649        C  0.69336570  0.42092954  0.43461118     1.04000
O650        O  0.65658874  0.44294436  0.49734873    -1.13200
O651        O  0.58690709  0.46211440  0.47603713    -0.75600
O652        O  0.62221674  0.52313202  0.46395228    -0.79100
O653        O  0.73027720  0.42272855  0.51543023    -0.79800
C654        C  0.59172364  0.50164093  0.46307565     0.95500
O655        O  0.67148221  0.53866902  0.51400992    -0.77700
O656        O  0.59624480  0.37499936  0.50810827    -0.82900
C657        C  0.64868606  0.39250613  0.56154149     0.98100
C658        C  0.61028086  0.34040822  0.49387047     1.04000
O659        O  0.66932393  0.37065934  0.54320205    -0.78600
C660        C  0.64238112  0.54759379  0.52789244     1.02300
Fe661      Fe  0.36752223  0.56076591  0.46416501     1.65800
Fe662      Fe  0.41042842  0.60305294  0.52333308     1.73200
Fe663      Fe  0.33855736  0.66445600  0.49509667     1.54400
O664        O  0.34275873  0.67422235  0.44884766    -0.82300
O665        O  0.37344419  0.60656704  0.55708429    -0.80600
O666        O  0.37503129  0.61134396  0.43266976    -0.84800
O667        O  0.31141299  0.56456032  0.46120849    -0.79700
O668        O  0.38057859  0.71393340  0.49774246    -0.81400
O669        O  0.40681146  0.52812111  0.52473878    -0.84200
C670        C  0.28688671  0.58236722  0.47753381     0.96600
C671        C  0.36311671  0.65369535  0.42964706     1.04000
O672        O  0.37191440  0.60973638  0.49439405    -1.13200
O673        O  0.44962638  0.60001093  0.49100183    -0.75600
O674        O  0.42288489  0.54783186  0.46154119    -0.79100
O675        O  0.29310547  0.61906796  0.49330633    -0.79800
C676        C  0.45100399  0.56972368  0.47033806     0.95500
O677        O  0.36131242  0.50799272  0.49509318    -0.77700
O678        O  0.42060675  0.67611168  0.52606850    -0.82900
C679        C  0.34734864  0.63568343  0.56169035     0.98100
C680        C  0.40981784  0.71348062  0.51257292     1.04000
O681        O  0.33352461  0.66179644  0.54134381    -0.78600
C682        C  0.38444090  0.49741711  0.51471603     1.02300
Fe683      Fe  0.40909504  0.56648359  0.28222838     1.65800
Fe684      Fe  0.36638420  0.60625392  0.22220136     1.73200
Fe685      Fe  0.43548046  0.67089862  0.25059154     1.54400
O686        O  0.43131829  0.68088494  0.29671470    -0.82300
O687        O  0.40463542  0.60857593  0.18940527    -0.80600
O688        O  0.40048360  0.61718180  0.31319810    -0.84800
O689        O  0.46513911  0.57231714  0.28520339    -0.79700
O690        O  0.39168942  0.71781306  0.24805719    -0.81400
O691        O  0.37067660  0.53131587  0.22243263    -0.84200
C692        C  0.48869229  0.59058743  0.26814914     0.96600
C693        C  0.41169787  0.65969849  0.31611344     1.04000
O694        O  0.40393221  0.61479987  0.25155096    -1.13200
O695        O  0.32691802  0.60410683  0.25421304    -0.75600
O696        O  0.35371029  0.55298223  0.28474640    -0.79100
O697        O  0.48164760  0.62712818  0.25234989    -0.79800
C698        C  0.32565886  0.57537464  0.27584003     0.95500
O699        O  0.41664599  0.51284269  0.25204962    -0.77700
O700        O  0.35495757  0.67920904  0.21773686    -0.82900
C701        C  0.42987691  0.63876536  0.18475731     0.98100
C702        C  0.36317569  0.71633893  0.23235822     1.04000
O703        O  0.44104348  0.66790214  0.20444592    -0.78600
C704        C  0.39299512  0.50100509  0.23323289     1.02300
C705        C  0.35070460  0.68566922  0.37966925    -0.26900
C706        C  0.37548553  0.67855988  0.40259293    -0.15000
C707        C  0.41348535  0.68112979  0.39631292     0.35600
C708        C  0.42550967  0.68330936  0.36701907    -0.26400
C709        C  0.40059963  0.68298528  0.34388209    -0.15600
C710        C  0.36289877  0.68777873  0.35042163     0.36700
N711        N  0.33622908  0.69105462  0.32756900    -0.89900
H712        H  0.32168199  0.68412824  0.38410051     0.17800
H713        H  0.45437604  0.67951893  0.36235495     0.17800
N714        N  0.44064409  0.67679174  0.41889982    -0.88900
H715        H  0.33761588  0.66029968  0.31457395     0.35200
H716        H  0.34263503  0.72067159  0.31443234     0.40300
H717        H  0.42885931  0.67546163  0.43976313     0.39900
H718        H  0.45637597  0.70803366  0.41836866     0.34800
C719        C  0.52979353  0.49463504  0.44366704    -0.26900
C720        C  0.55894524  0.52479389  0.45089495    -0.15000
C721        C  0.55199310  0.57371776  0.45626884     0.35600
C722        C  0.51585028  0.58938884  0.45965604    -0.26400
C723        C  0.48684209  0.55673865  0.45780376    -0.15600
C724        C  0.49382756  0.50964612  0.44789335     0.36700
N725        N  0.46501730  0.47533988  0.44515762    -0.89900
H726        H  0.53489206  0.45715998  0.43873448     0.17800
H727        H  0.51071318  0.62617993  0.46615432     0.17800
N728        N  0.58135573  0.60644334  0.46116551    -0.88900
H729        H  0.47016141  0.44695460  0.45967862     0.35200
H730        H  0.46562653  0.46178583  0.42379320     0.40300
H731        H  0.57838394  0.62080251  0.48221206     0.39900
H732        H  0.57887915  0.63457312  0.44604385     0.34800
C733        C  0.60881576  0.37942591  0.60411236    -0.26900
C734        C  0.64396803  0.37523407  0.59179171    -0.15000
C735        C  0.67356273  0.36294296  0.60991206     0.35600
C736        C  0.66809919  0.36047329  0.64025670    -0.26400
C737        C  0.63377504  0.37075704  0.65269520    -0.15600
C738        C  0.60355035  0.37823625  0.63438478     0.36700
N739        N  0.56810119  0.38922961  0.64592364    -0.89900
H740        H  0.58569193  0.38786115  0.59022943     0.17800
H741        H  0.69142276  0.35456178  0.65438811     0.17800
N742        N  0.70969821  0.35676616  0.59849292    -0.88900
H743        H  0.56992057  0.42001593  0.65891971     0.35200
H744        H  0.55971466  0.36063931  0.65917467     0.40300
H745        H  0.71737445  0.38823050  0.58758531     0.39900
H746        H  0.70933978  0.32865612  0.58335611     0.34800
C747        C  0.78544542  0.51566772  0.80152559    -0.26900
C748        C  0.79044221  0.56119050  0.78887622    -0.15000
C749        C  0.75982268  0.59114079  0.78435154     0.35600
C750        C  0.72474339  0.57148367  0.78721827    -0.26400
C751        C  0.72041264  0.52270306  0.79413452    -0.15600
C752        C  0.75059569  0.49617613  0.80409937     0.36700
N753        N  0.74615345  0.44791054  0.81440605    -0.89900
H754        H  0.80865311  0.49302468  0.80662344     0.17800
H755        H  0.70130857  0.59256813  0.78053656     0.17800
N756        N  0.76447749  0.64011950  0.77512241    -0.88900
H757        H  0.75682375  0.44580162  0.83562768     0.35200
H758        H  0.76155589  0.42524632  0.80090460     0.40300
H759        H  0.77769360  0.65822845  0.79210218     0.39900
H760        H  0.73917707  0.65688999  0.77238085     0.34800
C761        C  0.91338969  0.67572587  0.90186280    -0.26900
C762        C  0.87559446  0.67283395  0.90708161    -0.15000
C763        C  0.85164962  0.67667688  0.88309207     0.35600
C764        C  0.86590119  0.67824967  0.85446753    -0.26400
C765        C  0.90368517  0.67415431  0.84914004    -0.15600
C766        C  0.92780551  0.67575753  0.87323669     0.36700
N767        N  0.96668171  0.67208473  0.86972270    -0.89900
H768        H  0.93204067  0.67235224  0.92018688     0.17800
H769        H  0.84711248  0.67667227  0.83616112     0.17800
N770        N  0.81294269  0.67396961  0.88697506    -0.88900
H771        H  0.97813554  0.70290575  0.87886316     0.35200
H772        H  0.97418007  0.67227081  0.84761264     0.40300
H773        H  0.80492845  0.70177733  0.90095144     0.39900
H774        H  0.80663654  0.64135223  0.89716569     0.34800
C775        C  0.26069906  0.59698346  0.28445935    -0.26900
C776        C  0.28991024  0.56535185  0.28964018    -0.15000
C777        C  0.28320450  0.52196042  0.30480558     0.35600
C778        C  0.24724362  0.50760631  0.30982204    -0.26400
C779        C  0.21802171  0.53544462  0.29958162    -0.15600
C780        C  0.22460884  0.58259313  0.28962386     0.36700
N781        N  0.19478419  0.61353502  0.28170918    -0.89900
H782        H  0.26578692  0.63154146  0.27429904     0.17800
H783        H  0.24225327  0.47187098  0.31838519     0.17800
N784        N  0.31240199  0.49037716  0.31291371    -0.88900
H785        H  0.20442602  0.64637422  0.27374275     0.35200
H786        H  0.18021136  0.62112989  0.30092049     0.40300
H787        H  0.30834739  0.45735427  0.30260087     0.39900
H788        H  0.31095946  0.48475205  0.33559421     0.34800
C789        C  0.05084853  0.56899355  0.96721145    -0.26900
C790        C  0.05652307  0.52328880  0.95528624    -0.15000
C791        C  0.02667667  0.49790638  0.94356152     0.35600
C792        C  0.99134854  0.51439941  0.94922260    -0.26400
C793        C  0.98546741  0.55590689  0.96601146    -0.15600
C794        C  0.01546105  0.58541743  0.97292611     0.36700
N795        N  0.01029928  0.63056354  0.98736605    -0.89900
H796        H  0.07367070  0.58925753  0.97570997     0.17800
H797        H  0.96857205  0.49240714  0.94249006     0.17800
N798        N  0.03127962  0.45331139  0.92816773    -0.88900
H799        H  0.02236186  0.65725667  0.97445491     0.35200
H800        H  0.02399346  0.62928584  0.00745645     0.40300
H801        H  0.05888989  0.44623023  0.92440442     0.39900
H802        H  0.01969747  0.45759932  0.90737624     0.34800
C803        C  0.11115902  0.37386632  0.10934055    -0.26900
C804        C  0.14597161  0.37843063  0.09651734    -0.15000
C805        C  0.17666825  0.38281008  0.11469072     0.35600
C806        C  0.17167071  0.38635135  0.14506013    -0.26400
C807        C  0.13647834  0.38644912  0.15766037    -0.15600
C808        C  0.10605725  0.37818649  0.13962600     0.36700
N809        N  0.06960718  0.37787133  0.15102229    -0.89900
H810        H  0.08736361  0.37068126  0.09542865     0.17800
H811        H  0.19534996  0.39201036  0.15878544     0.17800
N812        N  0.21271377  0.38747398  0.10282470    -0.88900
H813        H  0.06468348  0.41043331  0.16171906     0.35200
H814        H  0.06736447  0.34993938  0.16625526     0.40300
H815        H  0.21334665  0.41738799  0.08891886     0.39900
H816        H  0.21846229  0.35691392  0.09037327     0.34800
C817        C  0.36242714  0.17655767  0.85022849    -0.26900
C818        C  0.40023148  0.17438052  0.84448148    -0.15000
C819        C  0.42450787  0.17750674  0.86826878     0.35600
C820        C  0.41080380  0.17656956  0.89708835    -0.26400
C821        C  0.37321605  0.17146864  0.90274490    -0.15600
C822        C  0.34865689  0.17461781  0.87919012     0.36700
N823        N  0.31018289  0.17034080  0.88456627    -0.89900
H824        H  0.34360735  0.17387119  0.83200361     0.17800
H825        H  0.42993665  0.17405701  0.91512807     0.17800
N826        N  0.46317429  0.17661848  0.86384999    -0.88900
H827        H  0.29579126  0.17181856  0.86480426     0.35200
H828        H  0.30207335  0.20027245  0.89676579     0.40300
H829        H  0.47009936  0.20563099  0.85035987     0.39900
H830        H  0.47019632  0.14496761  0.85291779     0.34800
C831        C  0.55351875  0.06361131  0.95522920    -0.26900
C832        C  0.55857955  0.01537755  0.94754187    -0.15000
C833        C  0.52845530  0.98818282  0.93818626     0.35600
C834        C  0.49320891  0.00671034  0.94214711    -0.26400
C835        C  0.48798170  0.05168063  0.95536516    -0.15600
C836        C  0.51828214  0.08197095  0.95933657     0.36700
N837        N  0.51345831  0.13032524  0.96921200    -0.89900
H838        H  0.57661735  0.08527851  0.96169085     0.17800
H839        H  0.46999256  0.98393176  0.93776271     0.17800
N840        N  0.53376707  0.94014525  0.92753652    -0.88900
H841        H  0.52553543  0.15316585  0.95376239     0.35200
H842        H  0.52742953  0.13418058  0.98900486     0.40300
H843        H  0.54875912  0.94248500  0.90801554     0.39900
H844        H  0.50878794  0.92452221  0.92219334     0.34800
C845        C  0.67414816  0.87595068  0.11142202    -0.26900
C846        C  0.64310257  0.87771320  0.09378763    -0.15000
C847        C  0.60822034  0.87607200  0.10717447     0.35600
C848        C  0.60489788  0.87714541  0.13787898    -0.26400
C849        C  0.63590301  0.88062003  0.15546374    -0.15600
C850        C  0.67083958  0.87771405  0.14213935     0.36700
N851        N  0.70310608  0.87819867  0.15977466    -0.89900
H852        H  0.70099051  0.87679339  0.10140831     0.17800
H853        H  0.57801894  0.87874017  0.14779525     0.17800
N854        N  0.57599924  0.87520405  0.08948311    -0.88900
H855        H  0.71886947  0.90767522  0.15340994     0.35200
H856        H  0.71803205  0.84706457  0.15523122     0.40300
H857        H  0.56017704  0.90527717  0.09474046     0.39900
H858        H  0.56111095  0.84458632  0.09509640     0.34800
C859        C  0.28275731  0.02318787  0.80766265    -0.26900
C860        C  0.28786381  0.06461230  0.79051178    -0.15000
C861        C  0.25742216  0.09399351  0.78395889     0.35600
C862        C  0.22225646  0.07619779  0.78936470    -0.26400
C863        C  0.21758440  0.02995458  0.80098397    -0.15600
C864        C  0.24772866  0.00556384  0.81283350     0.36700
N865        N  0.24295594  0.96056043  0.82761760    -0.89900
H866        H  0.30584724  0.00156868  0.81445622     0.17800
H867        H  0.19887628  0.09575588  0.78102544     0.17800
N868        N  0.26219905  0.13998417  0.77008967    -0.88900
H869        H  0.25426833  0.96349897  0.84857534     0.35200
H870        H  0.25763562  0.93437673  0.81613963     0.40300
H871        H  0.27631060  0.16181403  0.78478491     0.39900
H872        H  0.23698479  0.15655476  0.76647031     0.34800
C873        C  0.11464971  0.86498714  0.64174888    -0.26900
C874        C  0.14489384  0.87526078  0.65916669    -0.15000
C875        C  0.17992947  0.87763780  0.64599849     0.35600
C876        C  0.18338158  0.87643749  0.61536181    -0.26400
C877        C  0.15238322  0.87272899  0.59788719    -0.15600
C878        C  0.11809992  0.86369010  0.61105713     0.36700
N879        N  0.08653555  0.85662266  0.59296422    -0.89900
H880        H  0.08794872  0.86191498  0.65182209     0.17800
H881        H  0.20978467  0.88263971  0.60529844     0.17800
N882        N  0.21187668  0.88345651  0.66364744    -0.88900
H883        H  0.06334420  0.85115562  0.60594631     0.35200
H884        H  0.09068100  0.82505524  0.58103699     0.40300
H885        H  0.22471126  0.91529599  0.65728841     0.39900
H886        H  0.22966983  0.85504438  0.65906261     0.34800
C887        C  0.75595165  0.09308212  0.28990677    -0.26900
C888        C  0.78548475  0.06201151  0.29504942    -0.15000
C889        C  0.77901847  0.01756938  0.30907775     0.35600
C890        C  0.74321381  0.00125715  0.31202885    -0.26400
C891        C  0.71410162  0.02859282  0.30113434    -0.15600
C892        C  0.72001977  0.07686995  0.29311062     0.36700
N893        N  0.68998640  0.10724044  0.28484889    -0.89900
H894        H  0.76079574  0.12846584  0.28080170     0.17800
H895        H  0.73859488  0.96476225  0.31943453     0.17800
N896        N  0.80849988  0.98692824  0.31782184    -0.88900
H897        H  0.67403161  0.11268038  0.30362882     0.35200
H898        H  0.69925987  0.14104355  0.27826949     0.40300
H899        H  0.80633052  0.95459169  0.30639029     0.39900
H900        H  0.80551919  0.97954193  0.34023218     0.34800
C901        C  0.01255129  0.08951382  0.46882637    -0.26900
C902        C  0.98366922  0.05755049  0.46369273    -0.15000
C903        C  0.99166588  0.01153336  0.45213004     0.35600
C904        C  0.02784845  0.99643742  0.45022297    -0.26400
C905        C  0.05624655  0.02572321  0.46009877    -0.15600
C906        C  0.04895197  0.07404395  0.46710844     0.36700
N907        N  0.07801899  0.10554262  0.47557585    -0.89900
H908        H  0.00668842  0.12548340  0.47653499     0.17800
H909        H  0.03347331  0.95954042  0.44416144     0.17800
N910        N  0.96395350  0.97759074  0.44471886    -0.88900
H911        H  0.06777858  0.13921045  0.48149681     0.35200
H912        H  0.09447297  0.11099452  0.45707080     0.40300
H913        H  0.94728710  0.99255331  0.42850417     0.39900
H914        H  0.94847177  0.96980019  0.46344121     0.34800
C915        C  0.92033641  0.18388501  0.36968855    -0.26900
C916        C  0.89615135  0.17673706  0.34643871    -0.15000
C917        C  0.85821662  0.17739831  0.35219261     0.35600
C918        C  0.84526272  0.17877415  0.38127934    -0.26400
C919        C  0.86975844  0.17902497  0.40472710    -0.15600
C920        C  0.90733205  0.18499538  0.39881671     0.36700
N921        N  0.93264176  0.18730273  0.42265799    -0.89900
H922        H  0.94945685  0.18315626  0.36563239     0.17800
H923        H  0.81642314  0.17374609  0.38549396     0.17800
N924        N  0.83291766  0.17178539  0.32855206    -0.88900
H925        H  0.94756972  0.21900861  0.42045320     0.35200
H926        H  0.95076292  0.15843899  0.42079061     0.40300
H927        H  0.81511972  0.20113394  0.32878963     0.39900
H928        H  0.81759166  0.14086246  0.33256110     0.34800
C929        C  0.95254165  0.69195224  0.61484603    -0.26900
C930        C  0.95094694  0.65074318  0.59712596    -0.15000
C931        C  0.95412737  0.60534406  0.61051557     0.35600
C932        C  0.95341628  0.60172323  0.64129789    -0.26400
C933        C  0.94988185  0.64279776  0.65897245    -0.15600
C934        C  0.95216992  0.68849459  0.64568935     0.36700
N935        N  0.95020797  0.73113544  0.66330873    -0.89900
H936        H  0.95085391  0.72702635  0.60458985     0.17800
H937        H  0.95246432  0.56642981  0.65133344     0.17800
N938        N  0.95447660  0.56267236  0.59308022    -0.88900
H939        H  0.95020689  0.76178080  0.65000852     0.35200
H940        H  0.97405463  0.73259800  0.67576532     0.40300
H941        H  0.93196115  0.54187502  0.59905361     0.39900
H942        H  0.97805307  0.54326331  0.59824867     0.34800
C943        C  0.03511730  0.76948477  0.46272549    -0.26900
C944        C  0.02705118  0.73417903  0.48402506    -0.15000
C945        C  0.05040997  0.73004417  0.50858746     0.35600
C946        C  0.07943555  0.76265726  0.51220558    -0.26400
C947        C  0.08579626  0.79952498  0.49175069    -0.15600
C948        C  0.06391842  0.80226392  0.46646023     0.36700
N949        N  0.06961305  0.84033668  0.44558608    -0.89900
H950        H  0.01763529  0.77326101  0.44373206     0.17800
H951        H  0.09578990  0.76082231  0.53195313     0.17800
N952        N  0.04343584  0.69496105  0.53093146    -0.88900
H953        H  0.05069222  0.83824678  0.42851068     0.35200
H954        H  0.09532714  0.83525047  0.43613552     0.40300
H955        H  0.03915784  0.71290887  0.55078684     0.39900
H956        H  0.06675690  0.67361275  0.53313863     0.34800
C957        C  0.85422827  0.86636012  0.52957697    -0.26900
C958        C  0.88920035  0.84567573  0.52941330    -0.15000
C959        C  0.91997783  0.87565044  0.53066007     0.35600
C960        C  0.91553654  0.92557352  0.52946793    -0.26400
C961        C  0.88077840  0.94610352  0.52628831    -0.15600
C962        C  0.84981169  0.91637881  0.52768511     0.36700
N963        N  0.81396711  0.93679869  0.52626746    -0.89900
H964        H  0.83033427  0.84363476  0.52870072     0.17800
H965        H  0.93957814  0.94806504  0.52871228     0.17800
N966        N  0.95587273  0.85534139  0.53187614    -0.88900
H967        H  0.79972727  0.92647581  0.54518241     0.35200
H968        H  0.80063102  0.92218287  0.50814252     0.40300
H969        H  0.96870415  0.86839330  0.55068292     0.39900
H970        H  0.97051291  0.86742066  0.51356457     0.34800
C971        C  0.81464701  0.53591736  0.54243022    -0.26900
C972        C  0.84221703  0.53804217  0.52077773    -0.15000
C973        C  0.84068947  0.50501302  0.49724022     0.35600
C974        C  0.80987516  0.47562994  0.49383486    -0.26400
C975        C  0.78093460  0.47711525  0.51398125    -0.15600
C976        C  0.78424864  0.50547511  0.53936125     0.36700
N977        N  0.75541199  0.50585563  0.56080689    -0.89900
H978        H  0.81573788  0.55993479  0.56106211     0.17800
H979        H  0.80753371  0.45372471  0.47430877     0.17800
N980        N  0.86934908  0.50266882  0.47584287    -0.88900
H981        H  0.76172021  0.52910309  0.57802108     0.35200
H982        H  0.75391579  0.47145145  0.56993331     0.40300
H983        H  0.85808727  0.50879401  0.45511983     0.39900
H984        H  0.87986134  0.46776931  0.47600330     0.34800
C985        C  0.82607273  0.59751639  0.11576143    -0.26900
C986        C  0.82884430  0.63818455  0.09742976    -0.15000
C987        C  0.82639041  0.68412355  0.11040454     0.35600
C988        C  0.82543321  0.68826634  0.14106840    -0.26400
C989        C  0.82711013  0.64762502  0.15946146    -0.15600
C990        C  0.82509116  0.60169533  0.14661226     0.36700
N991        N  0.82548502  0.55942956  0.16476652    -0.89900
H992        H  0.82729993  0.56211691  0.10601725     0.17800
H993        H  0.82639928  0.72380881  0.15063215     0.17800
N994        N  0.82800045  0.72728778  0.09330627    -0.88900
H995        H  0.82575493  0.52848936  0.15183291     0.35200
H996        H  0.80097756  0.55883443  0.17654364     0.40300
H997        H  0.80619155  0.72739924  0.07859673     0.39900
H998        H  0.85248797  0.72772402  0.08149378     0.34800
C999        C  0.72799764  0.73001514  0.24628414    -0.26900
C1000       C  0.74516837  0.72710459  0.27381077    -0.15000
C1001       C  0.73148664  0.75572580  0.29700994     0.35600
C1002       C  0.70376101  0.78964819  0.29163246    -0.26400
C1003       C  0.68924094  0.79561691  0.26344220    -0.15600
C1004       C  0.70047731  0.76437120  0.24078911     0.36700
N1005       N  0.68474867  0.76875618  0.21202559    -0.89900
H1006       H  0.73806148  0.70821244  0.22832264     0.17800
H1007       H  0.69499178  0.81321445  0.30920176     0.17800
N1008       N  0.74648134  0.75152869  0.32590536    -0.88900
H1009       H  0.69558588  0.74280788  0.19792146     0.35200
H1010       H  0.69237669  0.80205836  0.20341299     0.40300
H1011       H  0.75671416  0.78501722  0.33195371     0.39900
H1012       H  0.72529383  0.74283766  0.34038673     0.34800
C1013       C  0.84504574  0.92678560  0.22732845    -0.26900
C1014       C  0.88003885  0.94707195  0.22673960    -0.15000
C1015       C  0.91075475  0.91709897  0.22348183     0.35600
C1016       C  0.90618742  0.86720274  0.22408158    -0.26400
C1017       C  0.87161115  0.84676675  0.22842202    -0.15600
C1018       C  0.84050113  0.87697682  0.22860286     0.36700
N1019       N  0.80417605  0.85838533  0.23058565    -0.89900
H1020       H  0.82123952  0.94969294  0.22938960     0.17800
H1021       H  0.93012548  0.84433318  0.22345506     0.17800
N1022       N  0.94658716  0.93753237  0.22102863    -0.88900
H1023       H  0.80055676  0.84162103  0.25090880     0.35200
H1024       H  0.80065248  0.83311155  0.21391731     0.40300
H1025       H  0.94750332  0.95723141  0.20146367     0.39900
H1026       H  0.96634232  0.91057193  0.21920736     0.34800
C1027       C  0.85107988  0.61052800  0.37288166    -0.26900
C1028       C  0.87532957  0.61456801  0.34921468    -0.15000
C1029       C  0.91343853  0.61266555  0.35485183     0.35600
C1030       C  0.92611630  0.61371041  0.38397922    -0.26400
C1031       C  0.90167375  0.61653140  0.40758614    -0.15600
C1032       C  0.86378717  0.61216276  0.40189641     0.36700
N1033       N  0.83735219  0.61365430  0.42514554    -0.89900
H1034       H  0.82197832  0.61224577  0.36895622     0.17800
H1035       H  0.95509292  0.61731406  0.38794435     0.17800
N1036       N  0.93995841  0.61421895  0.33149818    -0.88900
H1037       H  0.83888318  0.64679609  0.43566376     0.35200
H1038       H  0.84378002  0.58692272  0.44038132     0.40300
H1039       H  0.92746473  0.61201947  0.31097448     0.39900
H1040       H  0.95612770  0.58340816  0.33330630     0.34800
C1041       C  0.99055332  0.50726711  0.21412797    -0.26900
C1042       C  0.99626239  0.48070233  0.23986415    -0.15000
C1043       C  0.96922101  0.48077682  0.26195181     0.35600
C1044       C  0.93868591  0.51119500  0.25922432    -0.26400
C1045       C  0.93497510  0.54209605  0.23495573    -0.15600
C1046       C  0.96012132  0.53779399  0.21143541     0.36700
N1047       N  0.95567489  0.56573064  0.18522987    -0.89900
H1048       H  0.01126558  0.50743625  0.19708284     0.17800
H1049       H  0.91935983  0.51348731  0.27721914     0.17800
N1050       N  0.97431636  0.45236465  0.28801940    -0.88900
H1051       H  0.95417641  0.54215744  0.16745335     0.35200
H1052       H  0.97890861  0.58690752  0.18244577     0.40300
H1053       H  0.97435537  0.41631525  0.28171721     0.39900
H1054       H  0.95233233  0.45683186  0.30243940     0.34800
C1055       C  0.19433849  0.85435976  0.36644779    -0.26900
C1056       C  0.19549643  0.89301579  0.34643139    -0.15000
C1057       C  0.20157046  0.93971598  0.35727773     0.35600
C1058       C  0.20266503  0.94704006  0.38761589    -0.26400
C1059       C  0.19766695  0.90887871  0.40757210    -0.15600
C1060       C  0.19505926  0.86173074  0.39670763     0.36700
N1061       N  0.19065494  0.82098279  0.41562275    -0.89900
H1062       H  0.19093375  0.81798339  0.35859027     0.17800
H1063       H  0.20559172  0.98338168  0.39567413     0.17800
N1064       N  0.20471205  0.98064892  0.33836150    -0.88900
H1065       H  0.16734297  0.82602291  0.42854923     0.35200
H1066       H  0.21345056  0.81834875  0.42921828     0.40300
H1067       H  0.18103932  0.98352722  0.32577319     0.39900
H1068       H  0.22712411  0.97558542  0.32445279     0.34800
C1069       C  0.06800855  0.00605389  0.28494581    -0.26900
C1070       C  0.08112821  0.99837489  0.25636354    -0.15000
C1071       C  0.06544865  0.02417346  0.23282438     0.35600
C1072       C  0.03586865  0.05540780  0.23813748    -0.26400
C1073       C  0.02086942  0.06033823  0.26640472    -0.15600
C1074       C  0.03773646  0.03616875  0.29007218     0.36700
N1075       N  0.02360737  0.04118086  0.31926513    -0.89900
H1076       H  0.07977855  0.98625966  0.30312797     0.17800
H1077       H  0.02291721  0.07343257  0.21979833     0.17800
N1078       N  0.07883437  0.01712673  0.20343901    -0.88900
H1079       H  0.04447213  0.05426471  0.33258081     0.35200
H1080       H  0.01647625  0.00709679  0.32698317     0.40300
H1081       H  0.10577872  0.02919499  0.20274641     0.39900
H1082       H  0.06418714  0.03820930  0.18852978     0.34800
C1083       C  0.02239886  0.80879718  0.29829166    -0.26900
C1084       C  0.05175208  0.77896167  0.29050353    -0.15000
C1085       C  0.04548201  0.72987407  0.28562878     0.35600
C1086       C  0.00960546  0.71296086  0.28448191    -0.26400
C1087       C  0.97990455  0.74436563  0.28814938    -0.15600
C1088       C  0.98640238  0.79195331  0.29745531     0.36700
N1089       N  0.95661971  0.82420145  0.30341146    -0.89900
H1090       H  0.02737538  0.84645601  0.30254571     0.17800
H1091       H  0.00497418  0.67592316  0.27837610     0.17800
N1092       N  0.07510711  0.69812657  0.27887291    -0.88900
H1093       H  0.96624162  0.85857484  0.30817106     0.35200
H1094       H  0.94363287  0.81197644  0.32248178     0.40300
H1095       H  0.07058213  0.68361135  0.25806925     0.39900
H1096       H  0.07467344  0.66997959  0.29408778     0.34800
C1097       C  0.28321824  0.80018003  0.21472880    -0.26900
C1098       C  0.27907032  0.82388952  0.24165008    -0.15000
C1099       C  0.30639473  0.81834513  0.26327309     0.35600
C1100       C  0.33520089  0.78595872  0.25845705    -0.26400
C1101       C  0.33714480  0.75778903  0.23289225    -0.15600
C1102       C  0.31150256  0.76692830  0.21020808     0.36700
N1103       N  0.31274891  0.74240346  0.18261904    -0.89900
H1104       H  0.26243376  0.80418768  0.19802223     0.17800
H1105       H  0.35489842  0.78062427  0.27583607     0.17800
N1106       N  0.30485357  0.84319516  0.29090288    -0.88900
H1107       H  0.30695577  0.70614373  0.18595559     0.35200
H1108       H  0.33891653  0.74592621  0.17371068     0.40300
H1109       H  0.28300792  0.86726590  0.29162078     0.39900
H1110       H  0.32838704  0.86409394  0.29244516     0.34800
C1111       C  0.11233024  0.68195821  0.20308813    -0.26900
C1112       C  0.14613849  0.70328949  0.20871850    -0.15000
C1113       C  0.17770650  0.67399532  0.20931352     0.35600
C1114       C  0.17380050  0.62396730  0.21051969    -0.26400
C1115       C  0.13907176  0.60296410  0.21119488    -0.15600
C1116       C  0.10834139  0.63212270  0.20454219     0.36700
N1117       N  0.07257376  0.61273391  0.20038219    -0.89900
H1118       H  0.08807210  0.70398199  0.20101781     0.17800
H1119       H  0.19778123  0.60194421  0.21407928     0.17800
N1120       N  0.21333546  0.69518812  0.21111422    -0.88900
H1121       H  0.06235404  0.59982590  0.22025816     0.35200
H1122       H  0.07423411  0.58466629  0.18520531     0.40300
H1123       H  0.21775097  0.71441794  0.19167955     0.39900
H1124       H  0.23354216  0.66869901  0.21207822     0.34800
C1125       C  0.08674637  0.84097423  0.88611342    -0.26900
C1126       C  0.08311877  0.87804508  0.90697877    -0.15000
C1127       C  0.07488942  0.92471604  0.89726533     0.35600
C1128       C  0.07349113  0.93419457  0.86708713    -0.26400
C1129       C  0.08065440  0.89802604  0.84629664    -0.15600
C1130       C  0.08614937  0.85054612  0.85587157     0.36700
N1131       N  0.09338825  0.81286381  0.83512269    -0.89900
H1132       H  0.09206090  0.80457756  0.89337808     0.17800
H1133       H  0.06871295  0.97077117  0.85987401     0.17800
N1134       N  0.06991769  0.96309931  0.91774588    -0.88900
H1135       H  0.09619636  0.77986679  0.84587767     0.35200
H1136       H  0.11858780  0.82000257  0.82525587     0.40300
H1137       H  0.04415225  0.97813689  0.91420947     0.39900
H1138       H  0.08944082  0.98939190  0.91324060     0.34800
C1139       C  0.99232618  0.78545788  0.03791983    -0.26900
C1140       C  0.99946036  0.80601858  0.01035165    -0.15000
C1141       C  0.97527874  0.79685630  0.98698488     0.35600
C1142       C  0.94543304  0.76594469  0.99129416    -0.26400
C1143       C  0.93974808  0.74217226  0.01820993    -0.15600
C1144       C  0.96332383  0.75313037  0.04198792     0.36700
N1145       N  0.95919442  0.73136682  0.07033421    -0.89900
H1146       H  0.01121978  0.79131237  0.05579014     0.17800
H1147       H  0.92793544  0.75793104  0.97283668     0.17800
N1148       N  0.98242815  0.81697362  0.95842414    -0.88900
H1149       H  0.96441718  0.69461273  0.06864660     0.35200
H1150       H  0.93241193  0.73670833  0.07754759     0.40300
H1151       H  0.98024141  0.85424935  0.96020452     0.39900
H1152       H  0.96261768  0.80617150  0.94339625     0.34800
C1153       C  0.10801993  0.60964248  0.04767746    -0.26900
C1154       C  0.14210106  0.58814043  0.04267098    -0.15000
C1155       C  0.17393526  0.61641939  0.04487715     0.35600
C1156       C  0.17051550  0.66646248  0.04570030    -0.26400
C1157       C  0.13605066  0.68826746  0.04436839    -0.15600
C1158       C  0.10461166  0.65951172  0.04842703     0.36700
N1159       N  0.06887596  0.67962803  0.05225389    -0.89900
H1160       H  0.08343208  0.58818763  0.04773811     0.17800
H1161       H  0.19486674  0.68822656  0.04402978     0.17800
N1162       N  0.20949276  0.59455118  0.04377580    -0.88900
H1163       H  0.06031881  0.69619340  0.03288583     0.35200
H1164       H  0.06986873  0.70507241  0.06904084     0.40300
H1165       H  0.21216834  0.57297980  0.06246292     0.39900
H1166       H  0.22993429  0.62053806  0.04494720     0.34800
C1167       C  0.11908330  0.93986288  0.14479225    -0.26900
C1168       C  0.15375939  0.92643564  0.15520902    -0.15000
C1169       C  0.18097140  0.91281773  0.13511319     0.35600
C1170       C  0.17203514  0.90811207  0.10553689    -0.26400
C1171       C  0.13596469  0.91488858  0.09576573    -0.15600
C1172       C  0.10980125  0.93383134  0.11522340     0.36700
N1173       N  0.07305328  0.94293787  0.10626615    -0.89900
H1174       H  0.09783537  0.94956824  0.16028668     0.17800
H1175       H  0.19268486  0.89474881  0.09051350     0.17800
N1176       N  0.21675830  0.89915688  0.14457467    -0.88900
H1177       H  0.06206545  0.91110353  0.09810998     0.35200
H1178       H  0.07359592  0.96825759  0.08929845     0.40300
H1179       H  0.21454101  0.87013804  0.15907746     0.39900
H1180       H  0.22800890  0.92802281  0.15594887     0.34800
C1181       C  0.20392129  0.00050023  0.96857246    -0.26900
C1182       C  0.19623638  0.98466510  0.99725349    -0.15000
C1183       C  0.21658976  0.00383410  0.02073499     0.35600
C1184       C  0.24471150  0.03689866  0.01516824    -0.26400
C1185       C  0.25406242  0.05023945  0.98636034    -0.15600
C1186       C  0.23305457  0.03229694  0.96293896     0.36700
N1187       N  0.24172561  0.04555850  0.93333870    -0.89900
H1188       H  0.18877701  0.98590183  0.95029115     0.17800
H1189       H  0.26086890  0.04976443  0.03339357     0.17800
N1190       N  0.20931163  0.98888256  0.05031612    -0.88900
H1191       H  0.21864979  0.06163817  0.92411756     0.35200
H1192       H  0.24735058  0.01421901  0.92157999     0.40300
H1193       H  0.20293618  0.01932602  0.06267926     0.39900
H1194       H  0.23316870  0.97378303  0.05887618     0.34800
C1195       C  0.33209657  0.68871651  0.63715989    -0.26900
C1196       C  0.33420322  0.64729518  0.65486863    -0.15000
C1197       C  0.33320853  0.60203699  0.64122864     0.35600
C1198       C  0.33358848  0.59900332  0.61039501    -0.26400
C1199       C  0.33495318  0.64044464  0.59268962    -0.15600
C1200       C  0.33239003  0.68582111  0.60624331     0.36700
N1201       N  0.33366356  0.72882330  0.58877020    -0.89900
H1202       H  0.33283011  0.72365817  0.64751553     0.17800
H1203       H  0.33550348  0.56393990  0.60025967     0.17800
N1204       N  0.33518141  0.55906591  0.65847663    -0.88900
H1205       H  0.33359935  0.75919869  0.60219173     0.35200
H1206       H  0.30961685  0.73036127  0.57656381     0.40300
H1207       H  0.35867210  0.54023505  0.65228787     0.39900
H1208       H  0.31260226  0.53791994  0.65336762     0.34800
C1209       C  0.49158806  0.49383780  0.70915851    -0.26900
C1210       C  0.49802542  0.46947535  0.73563700    -0.15000
C1211       C  0.47224302  0.47365710  0.75875078     0.35600
C1212       C  0.44285129  0.50563113  0.75587247    -0.26400
C1213       C  0.43858207  0.53404715  0.73058490    -0.15600
C1214       C  0.46221413  0.52617868  0.70648358     0.36700
N1215       N  0.45732780  0.55226884  0.67963792    -0.89900
H1216       H  0.51125353  0.49114589  0.69140331     0.17800
H1217       H  0.42478622  0.51073234  0.77450277     0.17800
N1218       N  0.47639533  0.44844412  0.78616664    -0.88900
H1219       H  0.45394748  0.52745161  0.66269978     0.35200
H1220       H  0.48115682  0.57161407  0.67539475     0.40300
H1221       H  0.49843972  0.42467748  0.78545431     0.39900
H1222       H  0.45325972  0.42713732  0.78911618     0.34800
C1223       C  0.23733059  0.73341566  0.74284911    -0.26900
C1224       C  0.25251818  0.72450250  0.77060164    -0.15000
C1225       C  0.23723021  0.74766878  0.79543528     0.35600
C1226       C  0.20905159  0.78179220  0.79167646    -0.26400
C1227       C  0.19617411  0.79339644  0.76359372    -0.15600
C1228       C  0.20977169  0.76806171  0.73915407     0.36700
N1229       N  0.19674848  0.77913127  0.71029278    -0.89900
H1230       H  0.24888789  0.71633594  0.72357610     0.17800
H1231       H  0.19862144  0.80134143  0.81046430     0.17800
N1232       N  0.25139942  0.73779297  0.82421501    -0.88900
H1233       H  0.18625516  0.74769560  0.70119713     0.35200
H1234       H  0.21900044  0.78984389  0.69748309     0.40300
H1235       H  0.24617994  0.70172001  0.82892298     0.39900
H1236       H  0.23749806  0.75792875  0.84005718     0.34800
C1237       C  0.41624164  0.86347195  0.72155524    -0.26900
C1238       C  0.38246479  0.84139834  0.72679682    -0.15000
C1239       C  0.35051690  0.87009633  0.72713496     0.35600
C1240       C  0.35351479  0.92011654  0.72571840    -0.26400
C1241       C  0.38778618  0.94225784  0.72454736    -0.15600
C1242       C  0.41928353  0.91349894  0.72071865     0.36700
N1243       N  0.45469798  0.93404141  0.71640379    -0.89900
H1244       H  0.44086111  0.84194016  0.72039667     0.17800
H1245       H  0.32907458  0.94178028  0.72799787     0.17800
N1246       N  0.31478684  0.84963749  0.72922105    -0.88900
H1247       H  0.46220138  0.95306518  0.73513015     0.35200
H1248       H  0.45340124  0.95781609  0.69862769     0.40300
H1249       H  0.31191064  0.82432648  0.71248371     0.39900
H1250       H  0.31176842  0.83251911  0.74948778     0.34800
C1251       C  0.44511751  0.68629955  0.14021025    -0.26900
C1252       C  0.44416623  0.64162524  0.15433697    -0.15000
C1253       C  0.44920771  0.59962112  0.13753615     0.35600
C1254       C  0.45035790  0.60244862  0.10671476    -0.26400
C1255       C  0.44589810  0.64667973  0.09243439    -0.15600
C1256       C  0.44581851  0.68929666  0.10935296     0.36700
N1257       N  0.44384182  0.73531063  0.09505410    -0.89900
H1258       H  0.44179106  0.71869363  0.15306035     0.17800
H1259       H  0.45107388  0.56960346  0.09405088     0.17800
N1260       N  0.45116425  0.55376874  0.15174134    -0.88900
H1261       H  0.46780658  0.73966391  0.08286835     0.35200
H1262       H  0.44326787  0.76294515  0.11053209     0.40300
H1263       H  0.47586106  0.53760651  0.14577790     0.39900
H1264       H  0.42999674  0.53250062  0.14376864     0.34800
C1265       C  0.33618646  0.50161785  0.98919257    -0.26900
C1266       C  0.34085277  0.52879819  0.01483750    -0.15000
C1267       C  0.31659436  0.52125537  0.03863775     0.35600
C1268       C  0.28660262  0.49024133  0.03546514    -0.26400
C1269       C  0.27996398  0.46720924  0.00869276    -0.15600
C1270       C  0.30569554  0.47171019  0.98579591     0.36700
N1271       N  0.29968847  0.44805757  0.95835794    -0.89900
H1272       H  0.35447260  0.50667128  0.97069810     0.17800
H1273       H  0.26678637  0.48752236  0.05310843     0.17800
N1274       N  0.32149584  0.54644117  0.06569577    -0.88900
H1275       H  0.32222769  0.42610117  0.95405428     0.35200
H1276       H  0.29839122  0.47419343  0.94186973     0.40300
H1277       H  0.32401450  0.52106278  0.08252765     0.39900
H1278       H  0.29799053  0.56671742  0.06975142     0.34800
C1279       C  0.25500206  0.79686698  0.95267308    -0.26900
C1280       C  0.22569775  0.76624196  0.95887241    -0.15000
C1281       C  0.23162461  0.71634284  0.96021535     0.35600
C1282       C  0.26737775  0.69879128  0.96003891    -0.26400
C1283       C  0.29697983  0.73050429  0.95886013    -0.15600
C1284       C  0.29072436  0.77955172  0.95304298     0.36700
N1285       N  0.32037040  0.81273067  0.95067323    -0.89900
H1286       H  0.25051639  0.83524493  0.95094141     0.17800
H1287       H  0.27200483  0.66080896  0.96369392     0.17800
N1288       N  0.20191665  0.68393171  0.96490117    -0.88900
H1289       H  0.31826076  0.83034870  0.93046021     0.35200
H1290       H  0.31746698  0.83839268  0.96724083     0.40300
H1291       H  0.20639868  0.66554475  0.98461166     0.39900
H1292       H  0.20218575  0.65882736  0.94788646     0.34800
C1293       C  0.36664089  0.59788075  0.89851390    -0.26900
C1294       C  0.40459018  0.59950369  0.90310141    -0.15000
C1295       C  0.42799211  0.59463916  0.87874021     0.35600
C1296       C  0.41304339  0.59479498  0.85019030    -0.26400
C1297       C  0.37527766  0.60075175  0.84555669    -0.15600
C1298       C  0.35166845  0.59872246  0.87011968     0.36700
N1299       N  0.31275657  0.60263410  0.86728055    -0.89900
H1300       H  0.34838872  0.60158566  0.91717097     0.17800
H1301       H  0.43129472  0.59615542  0.83142201     0.17800
N1302       N  0.46681901  0.59394272  0.88287178    -0.88900
H1303       H  0.30138147  0.57169978  0.87652162     0.35200
H1304       H  0.30500915  0.60272288  0.84525041     0.40300
H1305       H  0.47452925  0.62730537  0.89117582     0.39900
H1306       H  0.48021143  0.59005325  0.86269903     0.34800
C1307       C  0.54354549  0.74451526  0.95758002    -0.26900
C1308       C  0.52992436  0.71812258  0.98167695    -0.15000
C1309       C  0.54621423  0.72478141  0.00953668     0.35600
C1310       C  0.57368430  0.75971885  0.01290393    -0.26400
C1311       C  0.58541145  0.78796256  0.98913128    -0.15600
C1312       C  0.57113445  0.77916200  0.96101334     0.36700
N1313       N  0.58303250  0.80761777  0.93642172    -0.89900
H1314       H  0.53132231  0.73976058  0.93616415     0.17800
H1315       H  0.58470992  0.76671769  0.03451669     0.17800
N1316       N  0.53332990  0.69846373  0.03470347    -0.88900
H1317       H  0.56921337  0.79762628  0.91736156     0.35200
H1318       H  0.61058741  0.79990751  0.93278004     0.40300
H1319       H  0.50673534  0.70996796  0.03914092     0.39900
H1320       H  0.54871726  0.70683381  0.05327598     0.34800
C1321       C  0.42452720  0.91472106  0.02265854    -0.26900
C1322       C  0.38968642  0.93570451  0.02129455    -0.15000
C1323       C  0.35860938  0.90596217  0.02209134     0.35600
C1324       C  0.36307571  0.85589380  0.02203108    -0.26400
C1325       C  0.39789689  0.83501347  0.02018002    -0.15600
C1326       C  0.42886689  0.86465611  0.02163508     0.36700
N1327       N  0.46471556  0.84410986  0.02115262    -0.89900
H1328       H  0.44856894  0.93721784  0.02210217     0.17800
H1329       H  0.33916439  0.83321403  0.02116461     0.17800
N1330       N  0.32268221  0.92675433  0.02151766    -0.88900
H1331       H  0.47831773  0.85505124  0.04011373     0.35200
H1332       H  0.47870387  0.85805453  0.00300648     0.40300
H1333       H  0.31923223  0.94631577  0.04088228     0.39900
H1334       H  0.30276218  0.89999322  0.02164856     0.34800
C1335       C  0.57271281  0.92754020  0.39584576    -0.26900
C1336       C  0.57874705  0.87988440  0.40432160    -0.15000
C1337       C  0.57908512  0.84367978  0.38249606     0.35600
C1338       C  0.57730212  0.85634867  0.35271457    -0.26400
C1339       C  0.57485157  0.90449448  0.34423140    -0.15600
C1340       C  0.57038766  0.94023408  0.36607990     0.36700
N1341       N  0.56454307  0.98956059  0.35792809    -0.89900
H1342       H  0.57129731  0.95533922  0.41239260     0.17800
H1343       H  0.57992859  0.82857829  0.33622434     0.17800
N1344       N  0.58179706  0.79398226  0.39035892    -0.88900
H1345       H  0.56221663  0.01124176  0.37654686     0.35200
H1346       H  0.53952407  0.99153580  0.34706478     0.40300
H1347       H  0.60509461  0.77975535  0.38030160     0.39900
H1348       H  0.55907905  0.77624907  0.38189208     0.34800
C1349       C  0.73231899  0.03881657  0.46040431    -0.26900
C1350       C  0.74825355  0.06074458  0.48503617    -0.15000
C1351       C  0.73450351  0.04949735  0.51319631     0.35600
C1352       C  0.70703556  0.01473283  0.51636464    -0.26400
C1353       C  0.69234447  0.99125765  0.49187320    -0.15600
C1354       C  0.70418659  0.00463625  0.46351414     0.36700
N1355       N  0.68953254  0.98102986  0.43816707    -0.89900
H1356       H  0.74299085  0.04685771  0.43872839     0.17800
H1357       H  0.69808961  0.00465718  0.53824517     0.17800
N1358       N  0.75020747  0.07062671  0.53883123    -0.88900
H1359       H  0.70213512  0.99361679  0.41902030     0.35200
H1360       H  0.66203587  0.99063177  0.43660653     0.40300
H1361       H  0.76062010  0.04306948  0.55201161     0.39900
H1362       H  0.72939217  0.08780264  0.55055620     0.34800
C1363       C  0.72419540  0.71418958  0.47137872    -0.26900
C1364       C  0.71859768  0.76067887  0.46046879    -0.15000
C1365       C  0.74827679  0.78685190  0.44911486     0.35600
C1366       C  0.78366807  0.76914083  0.45306209    -0.26400
C1367       C  0.78967519  0.72629027  0.46863446    -0.15600
C1368       C  0.75963580  0.69688740  0.47582382     0.36700
N1369       N  0.76490358  0.65094517  0.48936583    -0.89900
H1370       H  0.70139117  0.69363672  0.47985280     0.17800
H1371       H  0.80653836  0.79123178  0.44646640     0.17800
N1372       N  0.74241519  0.83337030  0.43620591    -0.88900
H1373       H  0.75194152  0.62514654  0.47651155     0.35200
H1374       H  0.75217294  0.65158753  0.50993397     0.40300
H1375       H  0.72705802  0.82847528  0.41716820     0.39900
H1376       H  0.76715985  0.84859405  0.42962423     0.34800
C1377       C  0.46776189  0.81929951  0.48785914    -0.26900
C1378       C  0.49386172  0.82016786  0.51028294    -0.15000
C1379       C  0.48776222  0.79327184  0.53603335     0.35600
C1380       C  0.45793512  0.76163278  0.53734261    -0.26400
C1381       C  0.43388999  0.75659784  0.51347881    -0.15600
C1382       C  0.43760544  0.78857390  0.48934468     0.36700
N1383       N  0.41279786  0.78869496  0.46513467    -0.89900
H1384       H  0.47233686  0.83999719  0.46799567     0.17800
H1385       H  0.45476365  0.73865101  0.55640867     0.17800
N1386       N  0.51306620  0.79604388  0.56001495    -0.88900
H1387       H  0.38664212  0.79641645  0.47309880     0.35200
H1388       H  0.41278924  0.75483431  0.45549424     0.40300
H1389       H  0.53831381  0.78326378  0.55269135     0.39900
H1390       H  0.50493431  0.77356024  0.57722047     0.34800
C1391       C  0.66491197  0.67447732  0.54937932    -0.26900
C1392       C  0.63060352  0.69551073  0.54488694    -0.15000
C1393       C  0.59938454  0.66578828  0.54562957     0.35600
C1394       C  0.60377657  0.61583540  0.54387126    -0.26400
C1395       C  0.63867186  0.59531558  0.54200685    -0.15600
C1396       C  0.66926693  0.62467623  0.54814692     0.36700
N1397       N  0.70505151  0.60536337  0.55271175    -0.89900
H1398       H  0.68904055  0.69667522  0.55078160     0.17800
H1399       H  0.57990200  0.59356390  0.54102935     0.17800
N1400       N  0.56345734  0.68649380  0.54598375    -0.88900
H1401       H  0.71517116  0.59067440  0.53328560     0.35200
H1402       H  0.70331432  0.57860510  0.56877034     0.40300
H1403       H  0.56039205  0.70404861  0.56610098     0.39900
H1404       H  0.54355147  0.65975081  0.54546204     0.34800
C1405       C  0.70765679  0.91267218  0.85253565    -0.26900
C1406       C  0.69502075  0.86767780  0.84354229    -0.15000
C1407       C  0.68860579  0.83175136  0.86523129     0.35600
C1408       C  0.69125135  0.84313023  0.89508048    -0.26400
C1409       C  0.70026053  0.88948946  0.90380514    -0.15600
C1410       C  0.71040645  0.92375010  0.88241868     0.36700
N1411       N  0.72260471  0.97038588  0.89107295    -0.89900
H1412       H  0.71400314  0.94014394  0.83644523     0.17800
H1413       H  0.68381851  0.81647102  0.91140432     0.17800
N1414       N  0.67843503  0.78392164  0.85728769    -0.88900
H1415       H  0.70520506  0.99592850  0.88173062     0.35200
H1416       H  0.74871289  0.97562800  0.88235133     0.40300
H1417       H  0.65311902  0.77642087  0.86687101     0.39900
H1418       H  0.69762705  0.76019928  0.86613728     0.34800
C1419       C  0.79261408  0.79907849  0.71314215    -0.26900
C1420       C  0.78269258  0.81839553  0.74043657    -0.15000
C1421       C  0.80586206  0.81040844  0.76488299     0.35600
C1422       C  0.83596553  0.77948840  0.76209609    -0.26400
C1423       C  0.84341456  0.75567265  0.73562121    -0.15600
C1424       C  0.82257585  0.76760213  0.71058599     0.36700
N1425       N  0.83079104  0.74621553  0.68277376    -0.89900
H1426       H  0.77502724  0.80457255  0.69434676     0.17800
H1427       H  0.85183647  0.77112430  0.78149173     0.17800
N1428       N  0.79811363  0.83027727  0.79337820    -0.88900
H1429       H  0.83580809  0.77380096  0.66769307     0.35200
H1430       H  0.80775843  0.72751071  0.67577792     0.40300
H1431       H  0.77600894  0.85392767  0.79259612     0.39900
H1432       H  0.82052783  0.85106213  0.79941099     0.34800
C1433       C  0.67786606  0.66230608  0.70114884    -0.26900
C1434       C  0.64532159  0.68919062  0.70165358    -0.15000
C1435       C  0.61200331  0.66515529  0.69709404     0.35600
C1436       C  0.61150919  0.61474755  0.69784756    -0.26400
C1437       C  0.64347618  0.58808544  0.70329692    -0.15600
C1438       C  0.67736431  0.61223914  0.70244809     0.36700
N1439       N  0.71155612  0.58775913  0.70541597    -0.89900
H1440       H  0.70392511  0.68022599  0.70312635     0.17800
H1441       H  0.58550335  0.59646144  0.69701559     0.17800
N1442       N  0.57848693  0.69162494  0.69438777    -0.88900
H1443       H  0.71260447  0.57093582  0.72590471     0.35200
H1444       H  0.71362227  0.56200416  0.68885415     0.40300
H1445       H  0.57994593  0.71127743  0.67482578     0.39900
H1446       H  0.55635472  0.66835319  0.69229565     0.34800
C1447       C  0.49545190  0.76282516  0.80315921    -0.26900
C1448       C  0.48836171  0.71914386  0.78911434    -0.15000
C1449       C  0.51763931  0.68824862  0.78186183     0.35600
C1450       C  0.55328357  0.70594273  0.78320240    -0.26400
C1451       C  0.55937785  0.75362270  0.79140612    -0.15600
C1452       C  0.53098427  0.78050788  0.80411132     0.36700
N1453       N  0.53778623  0.82757477  0.81536620    -0.89900
H1454       H  0.47324361  0.78593340  0.81009868     0.17800
H1455       H  0.57547891  0.68475785  0.77420237     0.17800
N1456       N  0.51082721  0.64081529  0.77085169    -0.88900
H1457       H  0.52914000  0.82834311  0.83726561     0.35200
H1458       H  0.52189356  0.85207369  0.80355287     0.40300
H1459       H  0.49832216  0.62123770  0.78770390     0.39900
H1460       H  0.53533008  0.62324064  0.76598182     0.34800
C1461       C  0.60615951  0.91735152  0.64414265    -0.26900
C1462       C  0.64225421  0.91847298  0.65467502    -0.15000
C1463       C  0.67098657  0.92741288  0.63497489     0.35600
C1464       C  0.66344702  0.92876985  0.60468476    -0.26400
C1465       C  0.62792059  0.92069253  0.59408207    -0.15600
C1466       C  0.59881691  0.91731691  0.61407177     0.36700
N1467       N  0.56225055  0.90883093  0.60448730    -0.89900
H1468       H  0.58382043  0.91105108  0.65932550     0.17800
H1469       H  0.68584739  0.93133393  0.58915967     0.17800
N1470       N  0.70781372  0.93008419  0.64544114    -0.88900
H1471       H  0.56178080  0.87691513  0.59246702     0.35200
H1472       H  0.55461385  0.93695510  0.59056831     0.40300
H1473       H  0.70969217  0.96067360  0.65856284     0.39900
H1474       H  0.72589876  0.93512447  0.62789606     0.34800
C1475       C  0.56548060  0.00793066  0.73360451    -0.26900
C1476       C  0.57898421  0.98171670  0.75759207    -0.15000
C1477       C  0.56510563  0.99131468  0.78590697     0.35600
C1478       C  0.53687766  0.02551855  0.78940261    -0.26400
C1479       C  0.52232098  0.05060175  0.76518420    -0.15600
C1480       C  0.53772335  0.04221823  0.73703630     0.36700
N1481       N  0.52420369  0.06553534  0.71117019    -0.89900
H1482       H  0.57580879  0.00048935  0.71173970     0.17800
H1483       H  0.52509880  0.03116392  0.81098028     0.17800
N1484       N  0.57848240  0.96475636  0.81075662    -0.88900
H1485       H  0.52765924  0.10252440  0.71344546     0.35200
H1486       H  0.49642300  0.05800497  0.70908578     0.40300
H1487       H  0.57144862  0.92878213  0.80779644     0.39900
H1488       H  0.56546062  0.97601888  0.83002214     0.34800
C1489       C  0.07173621  0.42938399  0.39753620    -0.26900
C1490       C  0.08087032  0.38223320  0.40540397    -0.15000
C1491       C  0.08404750  0.34706418  0.38306899     0.35600
C1492       C  0.08209354  0.36070136  0.35351880    -0.26400
C1493       C  0.07682762  0.40873754  0.34576716    -0.15600
C1494       C  0.06955498  0.44283526  0.36792464     0.36700
N1495       N  0.06065944  0.49141657  0.36039232    -0.89900
H1496       H  0.06795249  0.45647846  0.41429668     0.17800
H1497       H  0.08695247  0.33402949  0.33666163     0.17800
N1498       N  0.08997336  0.29752920  0.39017033    -0.88900
H1499       H  0.07992387  0.51387272  0.37007336     0.35200
H1500       H  0.03515992  0.49948693  0.36950629     0.40300
H1501       H  0.11435779  0.28654429  0.38025563     0.39900
H1502       H  0.06875041  0.27757936  0.38108107     0.34800
C1503       C  0.99054097  0.28934859  0.53575002    -0.26900
C1504       C  0.99727082  0.31212922  0.50880683    -0.15000
C1505       C  0.97187035  0.30688239  0.48590437     0.35600
C1506       C  0.94129773  0.27712491  0.48968355    -0.26400
C1507       C  0.93616146  0.25078554  0.51574598    -0.15600
C1508       C  0.96050166  0.25847759  0.53933812     0.36700
N1509       N  0.95561811  0.23373487  0.56667570    -0.89900
H1510       H  0.01020605  0.29246629  0.55334541     0.17800
H1511       H  0.92310956  0.27186155  0.47128088     0.17800
N1512       N  0.97809543  0.32997623  0.45819937    -0.88900
H1513       H  0.95320380  0.25935548  0.58329156     0.35200
H1514       H  0.97908610  0.21339717  0.57073133     0.40300
H1515       H  0.95555757  0.35177518  0.45364104     0.39900
H1516       H  0.97958779  0.30349903  0.44201748     0.34800
C1517       C  0.10755500  0.11628785  0.55019090    -0.26900
C1518       C  0.14192489  0.09469095  0.54707277    -0.15000
C1519       C  0.17326630  0.12376271  0.54928786     0.35600
C1520       C  0.16974398  0.17383095  0.54816899    -0.26400
C1521       C  0.13531818  0.19533702  0.54518959    -0.15600
C1522       C  0.10387220  0.16630708  0.54933582     0.36700
N1523       N  0.06787136  0.18615115  0.55179440    -0.89900
H1524       H  0.08313839  0.09450179  0.55005911     0.17800
H1525       H  0.19422873  0.19535200  0.54657518     0.17800
N1526       N  0.20884332  0.10250824  0.55061003    -0.88900
H1527       H  0.05976027  0.20072021  0.53173101     0.35200
H1528       H  0.06810787  0.21307407  0.56773763     0.40300
H1529       H  0.22163669  0.11479652  0.56962205     0.39900
H1530       H  0.22389668  0.11456731  0.53253633     0.34800
C1531       C  0.22982642  0.55972980  0.50517427    -0.26900
C1532       C  0.25109391  0.55650052  0.47943075    -0.15000
C1533       C  0.24070174  0.52258480  0.45786121     0.35600
C1534       C  0.21195747  0.49040503  0.46345394    -0.26400
C1535       C  0.19280240  0.49134630  0.49009700    -0.15600
C1536       C  0.20103880  0.52735001  0.51067097     0.36700
N1537       N  0.18090140  0.53021839  0.53759821    -0.89900
H1538       H  0.23693803  0.58543493  0.52199119     0.17800
H1539       H  0.20570403  0.46305749  0.44737817     0.17800
N1540       N  0.25982881  0.51974355  0.43043068    -0.95300
H1541       H  0.16893533  0.56426649  0.53870698     0.35200
H1542       H  0.19934481  0.52722293  0.55494406     0.40300
H1543       H  0.24099650  0.52499987  0.41353242     0.39900
H1544       H  0.27053912  0.48510061  0.42838906     0.34800
C1545       C  0.19318306  0.34007684  0.86558032    -0.26900
C1546       C  0.19644697  0.37742828  0.84469527    -0.15000
C1547       C  0.20230532  0.42464560  0.85459707     0.35600
C1548       C  0.20140611  0.43382469  0.88489722    -0.26400
C1549       C  0.19504441  0.39691550  0.90546971    -0.15600
C1550       C  0.19213061  0.34946387  0.89571147     0.36700
N1551       N  0.18574716  0.31110176  0.91608264    -0.89900
H1552       H  0.18960179  0.30329409  0.85853951     0.17800
H1553       H  0.20445089  0.47040407  0.89248597     0.17800
N1554       N  0.20726519  0.46339694  0.83408408    -0.88900
H1555       H  0.20653855  0.28573212  0.91344161     0.35200
H1556       H  0.16104668  0.29478691  0.91065071     0.40300
H1557       H  0.23236809  0.45801491  0.82363704     0.39900
H1558       H  0.20926937  0.49614036  0.84509590     0.34800
C1559       C  0.07139425  0.49930118  0.78799755    -0.26900
C1560       C  0.08271994  0.48872282  0.75927093    -0.15000
C1561       C  0.06762290  0.51533136  0.73561042     0.35600
C1562       C  0.03972437  0.54883110  0.74114359    -0.26400
C1563       C  0.02605941  0.55640034  0.76961583    -0.15600
C1564       C  0.04306964  0.53223197  0.79339249     0.36700
N1565       N  0.03197718  0.53994373  0.82321193    -0.89900
H1566       H  0.08302442  0.47959055  0.80627476     0.17800
H1567       H  0.02707497  0.56691499  0.72267534     0.17800
N1568       N  0.07908281  0.50846198  0.70564817    -0.88900
H1569       H  0.00524210  0.52802356  0.82601702     0.35200
H1570       H  0.03294909  0.57674214  0.82750269     0.40300
H1571       H  0.10081156  0.48436190  0.70413199     0.39900
H1572       H  0.08910981  0.54125706  0.69794990     0.34800
C1573       C  0.30518799  0.31044841  0.75949724    -0.26900
C1574       C  0.27938605  0.31360879  0.73690761    -0.15000
C1575       C  0.28571434  0.28863731  0.71059616     0.35600
C1576       C  0.31601911  0.25778873  0.70820683    -0.26400
C1577       C  0.34010429  0.25106993  0.73190503    -0.15600
C1578       C  0.33544197  0.27962904  0.75724891     0.36700
N1579       N  0.35942673  0.27448067  0.78182435    -0.89900
H1580       H  0.30017502  0.32893058  0.78004401     0.17800
H1581       H  0.31924869  0.23654210  0.68847153     0.17800
N1582       N  0.25968670  0.29125011  0.68727977    -0.88900
H1583       H  0.34401161  0.26356240  0.79999998     0.35200
H1584       H  0.37045243  0.30815264  0.78645866     0.40300
H1585       H  0.24989870  0.25665722  0.68341294     0.39900
H1586       H  0.27327017  0.30285844  0.66833665     0.34800
C1587       C  0.17214733  0.16402729  0.70518189    -0.26900
C1588       C  0.13966496  0.19075758  0.70779086    -0.15000
C1589       C  0.10615611  0.16662212  0.70514592     0.35600
C1590       C  0.10565780  0.11636482  0.70662914    -0.26400
C1591       C  0.13817918  0.09003478  0.71036466    -0.15600
C1592       C  0.17167533  0.11382028  0.70640100     0.36700
N1593       N  0.20537002  0.08772264  0.70595551    -0.89900
H1594       H  0.19829340  0.18204478  0.70524609     0.17800
H1595       H  0.07952448  0.09839524  0.70766565     0.17800
N1596       N  0.07255125  0.19273739  0.70303093    -0.88900
H1597       H  0.21881452  0.09571402  0.68626301     0.35200
H1598       H  0.22154048  0.09994426  0.72319767     0.40300
H1599       H  0.05564531  0.18266191  0.72049097     0.39900
H1600       H  0.05972170  0.18248484  0.68358519     0.34800
C1601       C  0.16803031  0.42315923  0.63829391    -0.26900
C1602       C  0.13835293  0.41307475  0.65646005    -0.15000
C1603       C  0.10281869  0.41240253  0.64446642     0.35600
C1604       C  0.09805415  0.41544116  0.61401633    -0.26400
C1605       C  0.12831777  0.41897658  0.59549697    -0.15600
C1606       C  0.16343319  0.42647088  0.60784369     0.36700
N1607       N  0.19536183  0.43380600  0.58999297    -0.89900
H1608       H  0.19524244  0.42460064  0.64743690     0.17800
H1609       H  0.07115743  0.41010784  0.60482466     0.17800
N1610       N  0.07168882  0.40569257  0.66313637    -0.88900
H1611       H  0.20697811  0.46633127  0.59636405     0.35200
H1612       H  0.18837706  0.43828850  0.56798441     0.40300
H1613       H  0.05825142  0.37453838  0.65650550     0.39900
H1614       H  0.05399820  0.43470677  0.65996839     0.34800
C1615       C  0.44633212  0.09780903  0.60467718    -0.26900
C1616       C  0.45017349  0.14404048  0.59291946    -0.15000
C1617       C  0.45724353  0.18255705  0.61228154     0.35600
C1618       C  0.45457722  0.17544551  0.64273686    -0.26400
C1619       C  0.44473229  0.13058640  0.65439450    -0.15600
C1620       C  0.44341835  0.09061947  0.63507620     0.36700
N1621       N  0.43837638  0.04247373  0.64546907    -0.89900
H1622       H  0.44196203  0.06763462  0.59015408     0.17800
H1623       H  0.45725211  0.20612259  0.65712104     0.17800
N1624       N  0.46650574  0.22941446  0.60161871    -0.88900
H1625       H  0.41216634  0.03858671  0.65411439     0.35200
H1626       H  0.45756354  0.03547132  0.66185898     0.40300
H1627       H  0.44477974  0.24352637  0.58963531     0.39900
H1628       H  0.48910834  0.22616101  0.58767411     0.34800
C1629       C  0.29056134  0.99799181  0.53757897    -0.26900
C1630       C  0.28282198  0.97686479  0.51043546    -0.15000
C1631       C  0.30702268  0.98407745  0.48669215     0.35600
C1632       C  0.33689919  0.01517790  0.48987137    -0.26400
C1633       C  0.34257705  0.04055656  0.51608937    -0.15600
C1634       C  0.31975584  0.03010656  0.54060758     0.36700
N1635       N  0.32480812  0.05226025  0.56864561    -0.89900
H1636       H  0.27188621  0.99300713  0.55583350     0.17800
H1637       H  0.35414007  0.02238660  0.47100197     0.17800
N1638       N  0.29965349  0.96210780  0.45881869    -0.88900
H1639       H  0.31923799  0.08891584  0.56691647     0.35200
H1640       H  0.35188750  0.04729957  0.57508224     0.40300
H1641       H  0.30156603  0.92496373  0.46169921     0.39900
H1642       H  0.31954806  0.97157426  0.44336785     0.34800
C1643       C  0.57605371  0.28528727  0.46049732    -0.26900
C1644       C  0.58707157  0.29753785  0.48898011    -0.15000
C1645       C  0.57172828  0.27282288  0.51315853     0.35600
C1646       C  0.54416265  0.23852441  0.50852206    -0.26400
C1647       C  0.53077348  0.22929352  0.48024240    -0.15600
C1648       C  0.54777766  0.25189053  0.45598679     0.36700
N1649       N  0.53565370  0.24201891  0.42677509    -0.89900
H1650       H  0.58772128  0.30394126  0.44179797     0.17800
H1651       H  0.53111455  0.22174601  0.52729827     0.17800
N1652       N  0.58312278  0.28433373  0.54247908    -0.88900
H1653       H  0.55793767  0.22915037  0.41472485     0.35200
H1654       H  0.52721885  0.27433021  0.41723080     0.40300
H1655       H  0.61063442  0.27493130  0.54432756     0.39900
H1656       H  0.56895165  0.26359698  0.55789011     0.34800
C1657       C  0.42254704  0.42697520  0.52821541    -0.26900
C1658       C  0.38763277  0.44660860  0.52381901    -0.15000
C1659       C  0.35714334  0.41586679  0.52328773     0.35600
C1660       C  0.36260022  0.36601997  0.52404655    -0.26400
C1661       C  0.39787523  0.34636825  0.52477296    -0.15600
C1662       C  0.42802762  0.37722838  0.52829356     0.36700
N1663       N  0.46442831  0.35918200  0.53147970    -0.89900
H1664       H  0.44611949  0.45026652  0.52911830     0.17800
H1665       H  0.33934479  0.34244958  0.52171089     0.17800
N1666       N  0.32095639  0.43534371  0.52054484    -0.88900
H1667       H  0.47195168  0.34090435  0.51241038     0.35200
H1668       H  0.46478686  0.33506251  0.54911183     0.40300
H1669       H  0.31555280  0.45537810  0.53944699     0.39900
H1670       H  0.30161063  0.40788661  0.51998183     0.34800
C1671       C  0.28939009  0.28250304  0.45259339    -0.26900
C1672       C  0.29577838  0.23594324  0.46316398    -0.15000
C1673       C  0.26633983  0.20375968  0.46573968     0.35600
C1674       C  0.23060790  0.22095004  0.46272162    -0.26400
C1675       C  0.22429469  0.26983403  0.45745659    -0.15600
C1676       C  0.25377015  0.29972316  0.44976390     0.36700
N1677       N  0.24759408  0.34882471  0.44168406    -0.89900
H1678       H  0.31183576  0.30716850  0.44933023     0.17800
H1679       H  0.20807791  0.19734255  0.46801348     0.17800
N1680       N  0.27257212  0.15437467  0.47297730    -0.88900
H1681       H  0.25935140  0.35454243  0.42102661     0.35200
H1682       H  0.26107287  0.37067544  0.45676826     0.40300
H1683       H  0.26097702  0.13334916  0.45650499     0.39900
H1684       H  0.25899283  0.14688700  0.49264835     0.34800
C1685       C  0.33278625  0.18731110  0.13635645    -0.26900
C1686       C  0.33415109  0.14774135  0.15554646    -0.15000
C1687       C  0.33453139  0.10119249  0.14353590     0.35600
C1688       C  0.33740527  0.09520364  0.11293272    -0.26400
C1689       C  0.33934531  0.13495200  0.09387610    -0.15600
C1690       C  0.33509465  0.18150760  0.10569670     0.36700
N1691       N  0.33631001  0.22297119  0.08686243    -0.89900
H1692       H  0.33224975  0.22319593  0.14545243     0.17800
H1693       H  0.34012316  0.05926521  0.10415192     0.17800
N1694       N  0.33496136  0.05994695  0.16236250    -0.88900
H1695       H  0.33542652  0.25450403  0.09923218     0.35200
H1696       H  0.31257434  0.22287586  0.07424075     0.40300
H1697       H  0.35887199  0.04060971  0.15816878     0.39900
H1698       H  0.31282241  0.03829272  0.15679276     0.34800
C1699       C  0.20432421  0.27702783  0.23827793    -0.26900
C1700       C  0.19269487  0.30416230  0.26248893    -0.15000
C1701       C  0.20784206  0.29470643  0.29020031     0.35600
C1702       C  0.23580688  0.26025301  0.29300941    -0.26400
C1703       C  0.24903370  0.23464655  0.26848799    -0.15600
C1704       C  0.23203617  0.24206198  0.24096233     0.36700
N1705       N  0.24487582  0.21703231  0.21535867    -0.89900
H1706       H  0.19283784  0.28474811  0.21687354     0.17800
H1707       H  0.24855123  0.25529403  0.31423961     0.17800
N1708       N  0.19637576  0.32201684  0.31519235    -0.88900
H1709       H  0.23102363  0.22876659  0.19661928     0.35200
H1710       H  0.23822501  0.18085353  0.21804654     0.40300
H1711       H  0.21914977  0.33965039  0.32362631     0.39900
H1712       H  0.18694312  0.29806932  0.33120034     0.34800
C1713       C  0.35229043  0.37701972  0.22738963    -0.26900
C1714       C  0.38381280  0.34837096  0.22677311    -0.15000
C1715       C  0.41810791  0.37057167  0.22345678     0.35600
C1716       C  0.42049296  0.42085304  0.22344017    -0.26400
C1717       C  0.38913506  0.44949827  0.22621303    -0.15600
C1718       C  0.35451555  0.42734980  0.22706503     0.36700
N1719       N  0.32188091  0.45583135  0.22953818    -0.89900
H1720       H  0.32589485  0.36004432  0.22976472     0.17800
H1721       H  0.44713209  0.43755268  0.22271639     0.17800
N1722       N  0.45078891  0.34235513  0.22225227    -0.88900
H1723       H  0.29874498  0.43395798  0.22970178     0.35200
H1724       H  0.32240136  0.47302793  0.24986036     0.40300
H1725       H  0.46732704  0.35212823  0.23988349     0.39900
H1726       H  0.46458861  0.35095124  0.20280600     0.34800
C1727       C  0.48922665  0.00240574  0.21212399    -0.26900
C1728       C  0.49405552  0.97540528  0.23781848    -0.15000
C1729       C  0.46661831  0.97688607  0.25981607     0.35600
C1730       C  0.43702993  0.00866552  0.25677083    -0.26400
C1731       C  0.43432480  0.03978809  0.23251992    -0.15600
C1732       C  0.45979967  0.03455815  0.20929580     0.36700
N1733       N  0.45688791  0.06329673  0.18327278    -0.89900
H1734       H  0.51013294  0.00181398  0.19523523     0.17800
H1735       H  0.41751911  0.01137478  0.27461574     0.17800
N1736       N  0.46910519  0.94891925  0.28634281    -0.88900
H1737       H  0.48081775  0.08331056  0.18106667     0.35200
H1738       H  0.45511225  0.04027106  0.16526159     0.40300
H1739       H  0.49162069  0.92592531  0.28583380     0.39900
H1740       H  0.44618666  0.92674578  0.28725194     0.34800
C1741       C  0.34840454  0.11434203  0.37076072    -0.26900
C1742       C  0.37200184  0.11432319  0.34653561    -0.15000
C1743       C  0.40985401  0.10800663  0.35129261     0.35600
C1744       C  0.42386126  0.10915221  0.38010849    -0.26400
C1745       C  0.40054065  0.11606974  0.40410872    -0.15600
C1746       C  0.36244285  0.11505461  0.39949513     0.36700
N1747       N  0.33803217  0.11908151  0.42400763    -0.89900
H1748       H  0.31939055  0.11928378  0.36745463     0.17800
H1749       H  0.45307175  0.10988916  0.38349892     0.17800
N1750       N  0.43420308  0.10573994  0.32652649    -0.88900
H1751       H  0.32069034  0.08937024  0.42383174     0.35200
H1752       H  0.32211688  0.14987272  0.42105641     0.40300
H1753       H  0.42806989  0.07451899  0.31490649     0.39900
H1754       H  0.46117776  0.10221102  0.33354991     0.34800
C1755       C  0.69010593  0.35165077  0.36368589    -0.26900
C1756       C  0.69433078  0.38879690  0.34280960    -0.15000
C1757       C  0.70435613  0.43487887  0.35278866     0.35600
C1758       C  0.70667186  0.44342826  0.38299564    -0.26400
C1759       C  0.69933844  0.40708408  0.40371554    -0.15600
C1760       C  0.69218877  0.36026273  0.39374961     0.36700
N1761       N  0.68451512  0.32136525  0.41344304    -0.89900
H1762       H  0.68355521  0.31553952  0.35675703     0.17800
H1763       H  0.71266574  0.47948283  0.39037923     0.17800
N1764       N  0.71089937  0.47414080  0.33313885    -0.88900
H1765       H  0.66200349  0.33054633  0.42642252     0.35200
H1766       H  0.70715765  0.31579228  0.42689272     0.40300
H1767       H  0.68741837  0.48028964  0.32073536     0.39900
H1768       H  0.73248528  0.46500434  0.31916694     0.34800
C1769       C  0.56811943  0.50671328  0.28397594    -0.26900
C1770       C  0.57938122  0.49536240  0.25536606    -0.15000
C1771       C  0.56475197  0.52130219  0.23146639     0.35600
C1772       C  0.53760703  0.55626531  0.23651780    -0.26400
C1773       C  0.52407079  0.56486443  0.26493554    -0.15600
C1774       C  0.54030952  0.54072532  0.28890297     0.36700
N1775       N  0.52783654  0.54964965  0.31823061    -0.89900
H1776       H  0.57939199  0.48711150  0.30243829     0.17800
H1777       H  0.52506948  0.57420744  0.21796104     0.17800
N1778       N  0.57657437  0.51062904  0.20205296    -0.88900
H1779       H  0.55007731  0.56119919  0.33060719     0.35200
H1780       H  0.51875110  0.51720239  0.32716537     0.40300
H1781       H  0.60422438  0.51933755  0.20050294     0.39900
H1782       H  0.56293128  0.53237031  0.18688499     0.34800
C1783       C  0.78491780  0.29999781  0.21243858    -0.26900
C1784       C  0.77784178  0.32315924  0.23911782    -0.15000
C1785       C  0.80263073  0.31763671  0.26254346     0.35600
C1786       C  0.83192168  0.28517931  0.25986038    -0.26400
C1787       C  0.83629350  0.25733343  0.23443226    -0.15600
C1788       C  0.81379300  0.26692307  0.20997009     0.36700
N1789       N  0.81918135  0.24155650  0.18298729    -0.89900
H1790       H  0.76593993  0.30391737  0.19439529     0.17800
H1791       H  0.84930926  0.27853678  0.27863454     0.17800
N1792       N  0.79614326  0.34228542  0.28976947    -0.88900
H1793       H  0.82362025  0.26680347  0.16633542     0.35200
H1794       H  0.79517517  0.22311108  0.17816498     0.40300
H1795       H  0.79824242  0.37907212  0.28556557     0.39900
H1796       H  0.81639185  0.33381833  0.30504783     0.34800
C1797       C  0.60693640  0.12229815  0.20514360    -0.26900
C1798       C  0.63903829  0.09540142  0.20949195    -0.15000
C1799       C  0.67283327  0.11922246  0.20780800     0.35600
C1800       C  0.67352862  0.16957212  0.20712017    -0.26400
C1801       C  0.64102379  0.19661558  0.20830972    -0.15600
C1802       C  0.60758633  0.17257168  0.20474405     0.36700
N1803       N  0.57393686  0.19865287  0.20319713    -0.89900
H1804       H  0.58069584  0.10452725  0.20494798     0.17800
H1805       H  0.69967824  0.18741821  0.20846007     0.17800
N1806       N  0.70642520  0.09295969  0.20907031    -0.88900
H1807       H  0.56089148  0.18919151  0.18369342     0.35200
H1808       H  0.55738882  0.18777860  0.22071790     0.40300
H1809       H  0.72115701  0.10485687  0.22723718     0.39900
H1810       H  0.72152872  0.10123904  0.19022015     0.34800
C1811       C  0.55004595  0.21945295  0.28568806    -0.26900
C1812       C  0.55489319  0.26739002  0.29402675    -0.15000
C1813       C  0.52489257  0.29382711  0.30494978     0.35600
C1814       C  0.48990482  0.27518211  0.30172604    -0.26400
C1815       C  0.48451362  0.23064600  0.28813501    -0.15600
C1816       C  0.51487215  0.20067686  0.28247144     0.36700
N1817       N  0.50990421  0.15282625  0.27148213    -0.89900
H1818       H  0.57324815  0.19867476  0.27808789     0.17800
H1819       H  0.46684089  0.29772583  0.30744590     0.17800
N1820       N  0.52879333  0.34120100  0.31695525    -0.88900
H1821       H  0.53507621  0.13606211  0.26792516     0.35200
H1822       H  0.49662302  0.13304930  0.28783323     0.40300
H1823       H  0.55628656  0.34973791  0.31961632     0.39900
H1824       H  0.51779548  0.34057254  0.33816887     0.34800
C1825       C  0.58684722  0.34502277  0.88088367    -0.26900
C1826       C  0.58057274  0.38197610  0.90143084    -0.15000
C1827       C  0.57106338  0.42811979  0.89114495     0.35600
C1828       C  0.57139796  0.43701058  0.86074782    -0.26400
C1829       C  0.58067768  0.40076898  0.84057749    -0.15600
C1830       C  0.58752975  0.35396097  0.85086000     0.36700
N1831       N  0.59786845  0.31551600  0.83168892    -0.89900
H1832       H  0.59319512  0.30889307  0.88813162     0.17800
H1833       H  0.56564410  0.47290385  0.85276032     0.17800
N1834       N  0.56274967  0.46617896  0.91133272    -0.88900
H1835       H  0.62119315  0.32561965  0.81995216     0.35200
H1836       H  0.57661115  0.30915157  0.81703583     0.40300
H1837       H  0.53820217  0.45745854  0.92177397     0.39900
H1838       H  0.55802969  0.49830420  0.90004006     0.34800
C1839       C  0.66356864  0.42523464  0.10305023    -0.26900
C1840       C  0.62877316  0.41562562  0.09150302    -0.15000
C1841       C  0.59864729  0.41298723  0.11056006     0.35600
C1842       C  0.60440271  0.41480334  0.14083308    -0.26400
C1843       C  0.63985396  0.41809322  0.15253954    -0.15600
C1844       C  0.66938452  0.42661643  0.13343113     0.36700
N1845       N  0.70571824  0.43284528  0.14411298    -0.89900
H1846       H  0.68684360  0.42781767  0.08839407     0.17800
H1847       H  0.58132038  0.40924741  0.15538738     0.17800
N1848       N  0.56257699  0.40418251  0.09992802    -0.88900
H1849       H  0.71298285  0.40256202  0.15635479     0.35200
H1850       H  0.70585452  0.46266989  0.15800665     0.40300
H1851       H  0.56270091  0.37193420  0.08822832     0.39900
H1852       H  0.55555259  0.43193369  0.08553063     0.34800
C1853       C  0.49236082  0.28702009  0.03417144    -0.26900
C1854       C  0.49611517  0.31358576  0.00814750    -0.15000
C1855       C  0.46916778  0.30948141  0.98635768     0.35600
C1856       C  0.44068879  0.27623763  0.98975565    -0.26400
C1857       C  0.43911379  0.24569487  0.01436101    -0.15600
C1858       C  0.46421472  0.25310829  0.03743760     0.36700
N1859       N  0.46204583  0.22514002  0.06381772    -0.89900
H1860       H  0.51314232  0.28946131  0.05095962     0.17800
H1861       H  0.42151132  0.27177072  0.97193659     0.17800
N1862       N  0.47203062  0.33704319  0.95985519    -0.88900
H1863       H  0.45915138  0.24869295  0.08151364     0.35200
H1864       H  0.48668501  0.20666919  0.06633995     0.40300
H1865       H  0.47357079  0.31325532  0.94218509     0.39900
H1866       H  0.44812749  0.35724234  0.95761748     0.34800
C1867       C  0.66677203  0.16877502  0.04066476    -0.26900
C1868       C  0.63262519  0.19070763  0.03688678    -0.15000
C1869       C  0.60107007  0.16149253  0.03732938     0.35600
C1870       C  0.60483567  0.11140091  0.03539598    -0.26400
C1871       C  0.63941390  0.08979562  0.03408908    -0.15600
C1872       C  0.67048468  0.11874555  0.03965490     0.36700
N1873       N  0.70613224  0.09876942  0.04407711    -0.89900
H1874       H  0.69116430  0.19049291  0.04191567     0.17800
H1875       H  0.58066275  0.08967718  0.03258712     0.17800
N1876       N  0.56534053  0.18289760  0.03790602    -0.88900
H1877       H  0.71585013  0.08362706  0.02466667     0.35200
H1878       H  0.70444322  0.07220272  0.06029118     0.40300
H1879       H  0.56289937  0.20182876  0.05760190     0.39900
H1880       H  0.54518488  0.15648062  0.03842746     0.34800
C1881       C  0.70621851  0.50157314  0.96166435    -0.26900
C1882       C  0.69248571  0.49075770  0.98967157    -0.15000
C1883       C  0.70542290  0.51657898  0.01412786     0.35600
C1884       C  0.73359780  0.55040271  0.01038558    -0.26400
C1885       C  0.74968104  0.55819883  0.98273399    -0.15600
C1886       C  0.73485058  0.53470144  0.95804977     0.36700
N1887       N  0.74960059  0.54331152  0.92935480    -0.89900
H1888       H  0.69630421  0.48208650  0.94276283     0.17800
H1889       H  0.74485964  0.56799944  0.02948727     0.17800
N1890       N  0.69094396  0.50666639  0.04288884    -0.88900
H1891       H  0.72850930  0.55573111  0.91592312     0.35200
H1892       H  0.75880564  0.51059547  0.92089810     0.40300
H1893       H  0.66338131  0.51634147  0.04282439     0.39900
H1894       H  0.70358322  0.52810280  0.05863992     0.34800
C1895       C  0.83033396  0.18915227  0.60724239    -0.26900
C1896       C  0.82939962  0.14320089  0.59487132    -0.15000
C1897       C  0.82489002  0.10307601  0.61350678     0.35600
C1898       C  0.82622973  0.10888261  0.64412278    -0.26400
C1899       C  0.83268167  0.15417189  0.65636851    -0.15600
C1900       C  0.83228139  0.19492150  0.63782487     0.36700
N1901       N  0.83577954  0.24206867  0.64992191    -0.89900
H1902       H  0.83322861  0.22038135  0.59319634     0.17800
H1903       H  0.82570449  0.07732605  0.65807559     0.17800
N1904       N  0.82098823  0.05605758  0.60131448    -0.88900
H1905       H  0.81313166  0.26227100  0.64340295     0.35200
H1906       H  0.85904453  0.25795717  0.64086335     0.40300
H1907       H  0.79651489  0.04160268  0.60911991     0.39900
H1908       H  0.84234483  0.03464211  0.60907626     0.34800
C1909       C  0.73464311  0.22759922  0.74240666    -0.26900
C1910       C  0.75115426  0.22439343  0.77017412    -0.15000
C1911       C  0.73578357  0.25139766  0.79366200     0.35600
C1912       C  0.70694023  0.28350410  0.78825301    -0.26400
C1913       C  0.69324247  0.29001360  0.75984466    -0.15600
C1914       C  0.70630291  0.26057146  0.73702931     0.36700
N1915       N  0.69189275  0.26570119  0.70799409    -0.89900
H1916       H  0.74571889  0.20737756  0.72412254     0.17800
H1917       H  0.69683500  0.30579454  0.80598960     0.17800
N1918       N  0.74907829  0.24763740  0.82313417    -0.88900
H1919       H  0.68167931  0.23240781  0.70149606     0.35200
H1920       H  0.71333553  0.27468890  0.69385020     0.40300
H1921       H  0.77548964  0.26131324  0.82415190     0.39900
H1922       H  0.74943557  0.21143580  0.82919725     0.34800
C1923       C  0.91655146  0.36688807  0.72198448    -0.26900
C1924       C  0.88221874  0.34621866  0.72721418    -0.15000
C1925       C  0.85114403  0.37654591  0.72848914     0.35600
C1926       C  0.85558502  0.42638464  0.72732610    -0.26400
C1927       C  0.89044316  0.44688402  0.72593154    -0.15600
C1928       C  0.92106473  0.41671205  0.72183251     0.36700
N1929       N  0.95709152  0.43556220  0.71800799    -0.89900
H1930       H  0.94058217  0.34430293  0.72039615     0.17800
H1931       H  0.83182199  0.44919125  0.73008367     0.17800
N1932       N  0.81488609  0.35806586  0.73147589    -0.88900
H1933       H  0.96484305  0.45362911  0.73702776     0.35200
H1934       H  0.95669593  0.45992510  0.70050838     0.40300
H1935       H  0.81060908  0.33270665  0.71498556     0.39900
H1936       H  0.81199264  0.34157742  0.75196313     0.34800
C1937       C  0.97089526  0.03936888  0.71092417    -0.26900
C1938       C  0.94213680  0.03904089  0.73158266    -0.15000
C1939       C  0.94195996  0.00258255  0.75329965     0.35600
C1940       C  0.97179137  0.97095742  0.75573814    -0.26400
C1941       C  0.00171785  0.97406132  0.73657877    -0.15600
C1942       C  0.00058925  0.00727118  0.71322101     0.36700
N1943       N  0.03113118  0.01102295  0.69348204    -0.89900
H1944       H  0.97129708  0.06650258  0.69384791     0.17800
H1945       H  0.97273950  0.94603707  0.77404354     0.17800
N1946       N  0.91281528  0.99934698  0.77422493    -0.88900
H1947       H  0.02666869  0.03810912  0.67797210     0.35200
H1948       H  0.03292746  0.97880377  0.68185150     0.40300
H1949       H  0.92372789  0.00350721  0.79523419     0.39900
H1950       H  0.90166028  0.96494691  0.77288002     0.34800
C1951       C  0.01484746  0.19858097  0.78854458    -0.26900
C1952       C  0.98615937  0.23174414  0.79156244    -0.15000
C1953       C  0.99325884  0.27708906  0.80393063     0.35600
C1954       C  0.02934998  0.29140556  0.80778745    -0.26400
C1955       C  0.05811886  0.26151380  0.79885207    -0.15600
C1956       C  0.05098329  0.21304279  0.79268107     0.36700
N1957       N  0.08025780  0.17972769  0.78809224    -0.89900
H1958       H  0.00947741  0.16256148  0.78080247     0.17800
H1959       H  0.03475175  0.32829355  0.81385011     0.17800
N1960       N  0.96437988  0.31052954  0.80971249    -0.88900
H1961       H  0.07703863  0.15153073  0.80306619     0.35200
H1962       H  0.07800153  0.16547223  0.76702007     0.40300
H1963       H  0.96877806  0.34121004  0.79692849     0.39900
H1964       H  0.96580706  0.32041191  0.83181361     0.34800
C1965       C  0.94295201  0.18451529  0.11189362    -0.26900
C1966       C  0.93850750  0.14331634  0.09453166    -0.15000
C1967       C  0.93556365  0.09834066  0.10840289     0.35600
C1968       C  0.93395871  0.09572993  0.13918039    -0.26400
C1969       C  0.93487335  0.13742114  0.15653674    -0.15600
C1970       C  0.94123805  0.18210862  0.14277203     0.36700
N1971       N  0.94245392  0.22534336  0.15986219    -0.89900
H1972       H  0.94504264  0.21921313  0.10121726     0.17800
H1973       H  0.92929110  0.06115548  0.14946843     0.17800
N1974       N  0.93067970  0.05576187  0.09134330    -0.88900
H1975       H  0.94498716  0.25538043  0.14619958     0.35200
H1976       H  0.96617585  0.22400411  0.17247532     0.40300
H1977       H  0.90567065  0.04048997  0.09720328     0.39900
H1978       H  0.95128529  0.03149803  0.09699173     0.34800
C1979       C  0.78272553  0.26293098  0.94374431    -0.26900
C1980       C  0.78778149  0.22023050  0.95971188    -0.15000
C1981       C  0.75711203  0.19176882  0.96675073     0.35600
C1982       C  0.72217166  0.21139525  0.96320801    -0.26400
C1983       C  0.71786190  0.25853093  0.95293997    -0.15600
C1984       C  0.74798058  0.28250063  0.94043591     0.36700
N1985       N  0.74424987  0.32758726  0.92550481    -0.89900
H1986       H  0.80592770  0.28380780  0.93642455     0.17800
H1987       H  0.69882125  0.19217139  0.97188330     0.17800
N1988       N  0.76153780  0.14473786  0.97931875    -0.88900
H1989       H  0.73464205  0.35354455  0.94008363     0.35200
H1990       H  0.72515552  0.32344910  0.90871499     0.40300
H1991       H  0.77473829  0.12340400  0.96369206     0.39900
H1992       H  0.73613264  0.12894717  0.98307318     0.34800
C1993       C  0.92837648  0.10598027  0.88049201    -0.26900
C1994       C  0.90329335  0.10896440  0.90366032    -0.15000
C1995       C  0.86561651  0.10457017  0.89757293     0.35600
C1996       C  0.85351687  0.10386978  0.86824895    -0.26400
C1997       C  0.87844203  0.10778473  0.84506921    -0.15600
C1998       C  0.91615832  0.10546869  0.85121904     0.36700
N1999       N  0.94208697  0.10738342  0.82762582    -0.89900
H2000       H  0.95725542  0.10958510  0.88487031     0.17800
H2001       H  0.82460194  0.10610212  0.86363345     0.17800
N2002       N  0.83964957  0.10621097  0.92129167    -0.88900
H2003       H  0.95896618  0.07718827  0.82922333     0.35200
H2004       H  0.95825427  0.13783525  0.83042649     0.40300
H2005       H  0.84385260  0.07572931  0.93430334     0.39900
H2006       H  0.81305022  0.10399053  0.91327816     0.34800
C2007       C  0.83756188  0.00097858  0.99115184    -0.26900
C2008       C  0.83938743  0.03091763  0.01590735    -0.15000
C2009       C  0.81328546  0.02477274  0.03868738     0.35600
C2010       C  0.78405492  0.99283527  0.03473058    -0.26400
C2011       C  0.78028089  0.96715151  0.00857117    -0.15600
C2012       C  0.80799769  0.96976911  0.98717880     0.36700
N2013       N  0.80506436  0.94266062  0.96062175    -0.89900
H2014       H  0.85745689  0.00453076  0.97363583     0.17800
H2015       H  0.76253217  0.99103939  0.05107035     0.17800
N2016       N  0.81546290  0.05265638  0.06512801    -0.88900
H2017       H  0.82826900  0.92095944  0.95878344     0.35200
H2018       H  0.80505343  0.96666951  0.94294171     0.40300
H2019       H  0.83932447  0.04245639  0.07598271     0.39900
H2020       H  0.79381109  0.04458186  0.07928567     0.34800
C2021       C  0.07074725  0.28016067  0.96557239    -0.26900
C2022       C  0.08102061  0.29281518  0.99418527    -0.15000
C2023       C  0.06337103  0.27028021  0.01835266     0.35600
C2024       C  0.03489539  0.23780904  0.01323242    -0.26400
C2025       C  0.02291030  0.22771389  0.98469688    -0.15600
C2026       C  0.04156594  0.24841179  0.96067335     0.36700
N2027       N  0.03032775  0.23819932  0.93127643    -0.89900
H2028       H  0.08383506  0.29734465  0.94694944     0.17800
H2029       H  0.02051254  0.22262327  0.03189609     0.17800
N2030       N  0.07263526  0.28062381  0.04836712    -0.88900
H2031       H  0.05262674  0.22362613  0.92000961     0.35200
H2032       H  0.02338764  0.27062277  0.92110394     0.40300
H2033       H  0.09500437  0.30350296  0.04976590     0.39900
H2034       H  0.08088291  0.24844077  0.05817512     0.34800
C2035       C  0.85116341  0.35955355  0.02688968    -0.26900
C2036       C  0.88594914  0.33842507  0.02621119    -0.15000
C2037       C  0.91693745  0.36769418  0.03019567     0.35600
C2038       C  0.91278661  0.41752831  0.03128553    -0.26400
C2039       C  0.87840588  0.43899114  0.02770156    -0.15600
C2040       C  0.84705247  0.40948034  0.02722681     0.36700
N2041       N  0.81085624  0.42901668  0.02660991    -0.89900
H2042       H  0.82709819  0.33740066  0.02464999     0.17800
H2043       H  0.93700484  0.43962032  0.03242335     0.17800
N2044       N  0.95293308  0.34797531  0.03273611    -0.88900
H2045       H  0.80684256  0.44750841  0.00692168     0.35200
H2046       H  0.80797902  0.45297530  0.04410061     0.40300
H2047       H  0.95282238  0.32237717  0.04957601     0.39900
H2048       H  0.96022851  0.33128308  0.01308208     0.34800
loop_ 
_geom_bond_atom_site_label_1 
_geom_bond_atom_site_label_2 
_geom_bond_distance 
_geom_bond_site_symmetry_2 
_ccdc_geom_bond_type 
Fe1          O17   2.047       .  S
Fe1           O7   2.076       .  S
Fe1          O14   2.075       .  S
Fe1           O6   2.024       .  S
Fe1          O12   1.944       .  S
Fe2           O5   2.038       .  S
Fe2           O9   2.087       .  S
Fe2          O13   2.044   1_554  S
Fe2          O18   2.076       .  S
Fe2          O12   1.940   1_554  S
Fe3          O21   2.117   1_556  S
Fe3           O8   2.072       .  S
Fe3          O15   2.084       .  S
Fe3           O4   2.123       .  S
Fe3          O12   1.948       .  S
O4           C11   1.280       .  A
O5           C19   1.268       .  A
O6           C11   1.263       .  A
O7           C10   1.269       .  A
O8           C20   1.270   1_556  A
O9           C22   1.271       .  A
C10          O15   1.273       .  A
C10        C2025   1.487   1_655  S
C11        C1994   1.479       .  S
O13          C16   1.267       .  A
O14          C16   1.272       .  A
C16        C1980   1.477       .  S
O17          C22   1.265   1_556  A
O18          C20   1.269       .  A
C19          O21   1.282       .  A
C19        C1966   1.480       .  S
C20        C2008   1.492       .  S
C22        C2036   1.476       .  S
Fe23         O39   2.047       .  S
Fe23         O29   2.062       .  S
Fe23         O36   2.061       .  S
Fe23         O28   2.026       .  S
Fe23         O34   1.953       .  S
Fe24         O27   2.047       .  S
Fe24         O31   2.095       .  S
Fe24         O35   2.052       .  S
Fe24         O40   2.082       .  S
Fe24         O34   1.947       .  S
Fe25         O43   2.105       .  S
Fe25         O30   2.074       .  S
Fe25         O37   2.089       .  S
Fe25         O26   2.119       .  S
Fe25         O34   1.956       .  S
O26          C33   1.280       .  A
O27          C41   1.270       .  A
O28          C33   1.264       .  A
O29          C32   1.265       .  A
O30          C42   1.270       .  A
O31          C44   1.274       .  A
C32          O37   1.272       .  A
C32        C1910   1.494       .  S
C33        C1997   1.477       .  S
O35          C38   1.267       .  A
O36          C38   1.267       .  A
C38        C1952   1.472       .  S
O39          C44   1.266       .  A
O40          C42   1.271       .  A
C41          O43   1.280       .  A
C41        C1899   1.483       .  S
C42        C1938   1.500       .  S
C44        C1924   1.483       .  S
Fe45         O61   2.029   1_556  S
Fe45         O51   2.060       .  S
Fe45         O58   2.079       .  S
Fe45         O50   2.006       .  S
Fe45         O56   1.938       .  S
Fe46         O49   2.027       .  S
Fe46         O53   2.126       .  S
Fe46         O57   2.041   1_554  S
Fe46         O62   2.083       .  S
Fe46         O56   1.929   1_554  S
Fe47         O65   2.108   1_556  S
Fe47         O52   2.087       .  S
Fe47         O59   2.098   1_556  S
Fe47         O48   2.122       .  S
Fe47         O56   1.939       .  S
O48          C55   1.284       .  A
O49          C63   1.268       .  A
O50          C55   1.266       .  A
O51          C54   1.264   1_556  A
O52          C64   1.274       .  A
O53          C66   1.283       .  A
C54          O59   1.272       .  A
C54        C1854   1.478       .  S
C55        C1826   1.483       .  S
O57          C60   1.261       .  A
O58          C60   1.267       .  A
C60        C1983   1.465       .  S
O61          C66   1.265       .  A
O62          C64   1.273   1_554  A
C63          O65   1.279       .  A
C63        C1840   1.469       .  S
C64        C1882   1.484       .  S
C66        C1868   1.489       .  S
Fe67         O83   2.036       .  S
Fe67         O73   2.061       .  S
Fe67         O80   2.085       .  S
Fe67         O72   2.014       .  S
Fe67         O78   1.934       .  S
Fe68         O71   2.013       .  S
Fe68         O75   2.115       .  S
Fe68         O79   2.035       .  S
Fe68         O84   2.086       .  S
Fe68         O78   1.922       .  S
Fe69         O87   2.125       .  S
Fe69         O74   2.079       .  S
Fe69         O81   2.090       .  S
Fe69         O70   2.125       .  S
Fe69         O78   1.936       .  S
O70          C77   1.284       .  A
O71          C85   1.265       .  A
O72          C77   1.267       .  A
O73          C76   1.265       .  A
O74          C86   1.272       .  A
O75          C88   1.280       .  A
C76          O81   1.272       .  A
C76        C1784   1.475       .  S
C77        C1756   1.487       .  S
O79          C82   1.261       .  A
O80          C82   1.268       .  A
C82        C1812   1.466       .  S
O83          C88   1.267       .  A
O84          C86   1.273       .  A
C85          O87   1.282       .  A
C85        C1843   1.476       .  S
C86        C1770   1.482       .  S
C88        C1801   1.487       .  S
Fe89        O105   2.049       .  S
Fe89         O95   2.072       .  S
Fe89        O102   2.073       .  S
Fe89         O94   2.025       .  S
Fe89        O100   1.945       .  S
Fe90         O93   2.043       .  S
Fe90         O97   2.094       .  S
Fe90        O101   2.044       .  S
Fe90        O106   2.081       .  S
Fe90        O100   1.939       .  S
Fe91        O109   2.119       .  S
Fe91         O96   2.076       .  S
Fe91        O103   2.093       .  S
Fe91         O92   2.127       .  S
Fe91        O100   1.948       .  S
O92          C99   1.281       .  A
O93         C107   1.269       .  A
O94          C99   1.263       .  A
O95          C98   1.269       .  A
O96         C108   1.272       .  A
O97         C110   1.273       .  A
C98         O103   1.275       .  A
C98        C1703   1.495       .  S
C99        C1742   1.481       .  S
O101        C104   1.267       .  A
O102        C104   1.272       .  A
C104       C1815   1.475       .  S
O105        C110   1.267       .  A
O106        C108   1.271       .  A
C107        O109   1.282       .  A
C107       C1686   1.487       .  S
C108       C1731   1.495       .  S
C110       C1714   1.481       .  S
Fe111       O127   2.054       .  S
Fe111       O117   2.076       .  S
Fe111       O124   2.073       .  S
Fe111       O116   2.030       .  S
Fe111       O122   1.951       .  S
Fe112       O115   2.045       .  S
Fe112       O119   2.089       .  S
Fe112       O123   2.048       .  S
Fe112       O128   2.079       .  S
Fe112       O122   1.939       .  S
Fe113       O131   2.115       .  S
Fe113       O118   2.076       .  S
Fe113       O125   2.092       .  S
Fe113       O114   2.125       .  S
Fe113       O122   1.948       .  S
O114        C121   1.281       .  A
O115        C129   1.269       .  A
O116        C121   1.264       .  A
O117        C120   1.268       .  A
O118        C130   1.271       .  A
O119        C132   1.273       .  A
C120        O125   1.274       .  A
C120       C1647   1.492       .  S
C121       C1745   1.483       .  S
O123        C126   1.267       .  A
O124        C126   1.270       .  A
C126       C1672   1.473       .  S
O127        C132   1.267       .  A
O128        C130   1.269       .  A
C129        O131   1.281       .  A
C129       C1616   1.483       .  S
C130       C1633   1.495       .  S
C132       C1661   1.476       .  S
Fe133       O149   2.032       .  S
Fe133       O139   2.058       .  S
Fe133       O146   2.090       .  S
Fe133       O138   2.009       .  S
Fe133       O144   1.936       .  S
Fe134       O137   2.011       .  S
Fe134       O141   2.113       .  S
Fe134       O145   2.030       .  S
Fe134       O150   2.082       .  S
Fe134       O144   1.921       .  S
Fe135       O153   2.121       .  S
Fe135       O140   2.083       .  S
Fe135       O147   2.092       .  S
Fe135       O136   2.123       .  S
Fe135       O144   1.933       .  S
O136        C143   1.285       .  A
O137        C151   1.265       .  A
O138        C143   1.266       .  A
O139        C142   1.265       .  A
O140        C152   1.272       .  A
O141        C154   1.279       .  A
C142        O147   1.272       .  A
C142       C1574   1.475       .  S
C143       C1546   1.484       .  S
O145        C148   1.261       .  A
O146        C148   1.269       .  A
C148       C1955   1.468       .  S
O149        C154   1.265       .  A
O150        C152   1.271       .  A
C151        O153   1.283       .  A
C151       C1602   1.471       .  S
C152       C1560   1.485       .  S
C154       C1588   1.483       .  S
Fe155       O171   2.033       .  S
Fe155       O161   2.069       .  S
Fe155       O168   2.093       .  S
Fe155       O160   2.019       .  S
Fe155       O166   1.942       .  S
Fe156       O159   2.015       .  S
Fe156       O163   2.117       .  S
Fe156       O167   2.024       .  S
Fe156       O172   2.087       .  S
Fe156       O166   1.925       .  S
Fe157       O175   2.117       .  S
Fe157       O162   2.089       .  S
Fe157       O169   2.094       .  S
Fe157       O158   2.118       .  S
Fe157       O166   1.940       .  S
O158        C165   1.283       .  A
O159        C173   1.263       .  A
O160        C165   1.266       .  A
O161        C164   1.267       .  A
O162        C174   1.274       .  A
O163        C176   1.281       .  A
C164        O169   1.274       .  A
C164       C1504   1.480   1_455  S
C165       C1490   1.481       .  S
O167        C170   1.258       .  A
O168        C170   1.269       .  A
C170       C1675   1.467       .  S
O171        C176   1.264       .  A
O172        C174   1.273       .  A
C173        O175   1.280       .  A
C173       C1605   1.469       .  S
C174       C1535   1.486       .  S
C176       C1521   1.486       .  S
Fe177       O193   2.035       .  S
Fe177       O183   2.053       .  S
Fe177       O190   2.080       .  S
Fe177       O182   2.013       .  S
Fe177       O188   1.934       .  S
Fe178       O181   2.015       .  S
Fe178       O185   2.111       .  S
Fe178       O189   2.035       .  S
Fe178       O194   2.084       .  S
Fe178       O188   1.924       .  S
Fe179       O197   2.130       .  S
Fe179       O184   2.090       .  S
Fe179       O191   2.099       .  S
Fe179       O180   2.124       .  S
Fe179       O188   1.936       .  S
O180        C187   1.286       .  A
O181        C195   1.266       .  A
O182        C187   1.264       .  A
O183        C186   1.264       .  A
O184        C196   1.273       .  A
O185        C198   1.278       .  A
C186        O191   1.275       .  A
C186       C1420   1.479       .  S
C187       C1406   1.486       .  S
O189        C192   1.263       .  A
O190        C192   1.268       .  A
C192       C1451   1.461       .  S
O193        C198   1.265       .  A
O194        C196   1.271       .  A
C195        O197   1.284       .  A
C195       C1462   1.475       .  S
C196       C1476   1.486       .  S
C198       C1434   1.487       .  S
Fe199       O215   2.035       .  S
Fe199       O205   2.066       .  S
Fe199       O212   2.094       .  S
Fe199       O204   2.023       .  S
Fe199       O210   1.940       .  S
Fe200       O203   2.014       .  S
Fe200       O207   2.114       .  S
Fe200       O211   2.031       .  S
Fe200       O216   2.084       .  S
Fe200       O210   1.924       .  S
Fe201       O219   2.121       .  S
Fe201       O206   2.083       .  S
Fe201       O213   2.087       .  S
Fe201       O202   2.120       .  S
Fe201       O210   1.934       .  S
O202        C209   1.285       .  A
O203        C217   1.265       .  A
O204        C209   1.267       .  A
O205        C208   1.267       .  A
O206        C218   1.273       .  A
O207        C220   1.280       .  A
C208        O213   1.272       .  A
C208       C1378   1.475       .  S
C209       C1336   1.483       .  S
O211        C214   1.260       .  A
O212        C214   1.270       .  A
C214       C1364   1.465       .  S
O215        C220   1.265       .  A
O216        C218   1.272       .  A
C217        O219   1.282       .  A
C217       C1465   1.469       .  S
C218       C1353   1.485       .  S
C220       C1392   1.485       .  S
Fe221       O237   2.054       .  S
Fe221       O227   2.066       .  S
Fe221       O234   2.068       .  S
Fe221       O226   2.026       .  S
Fe221       O232   1.947       .  S
Fe222       O225   2.033       .  S
Fe222       O229   2.092       .  S
Fe222       O233   2.044   1_554  S
Fe222       O238   2.080       .  S
Fe222       O232   1.935   1_554  S
Fe223       O241   2.121   1_556  S
Fe223       O228   2.079       .  S
Fe223       O235   2.092       .  S
Fe223       O224   2.136       .  S
Fe223       O232   1.945       .  S
O224        C231   1.285       .  A
O225        C239   1.268       .  A
O226        C231   1.265       .  A
O227        C230   1.266       .  A
O228        C240   1.271   1_556  A
O229        C242   1.274       .  A
C230        O235   1.272       .  A
C230       C1308   1.497       .  S
C231       C1294   1.484       .  S
O233        C236   1.266       .  A
O234        C236   1.268       .  A
C236       C1283   1.468       .  S
O237        C242   1.269   1_556  A
O238        C240   1.270       .  A
C239        O241   1.283       .  A
C239       C1255   1.484       .  S
C240       C1266   1.492       .  S
C242       C1325   1.479       .  S
Fe243       O259   2.050       .  S
Fe243       O249   2.069       .  S
Fe243       O256   2.067       .  S
Fe243       O248   2.030       .  S
Fe243       O254   1.958       .  S
Fe244       O247   2.041       .  S
Fe244       O251   2.091       .  S
Fe244       O255   2.039       .  S
Fe244       O260   2.084       .  S
Fe244       O254   1.949       .  S
Fe245       O263   2.120       .  S
Fe245       O250   2.068       .  S
Fe245       O257   2.089       .  S
Fe245       O246   2.127       .  S
Fe245       O254   1.955       .  S
O246        C253   1.280       .  A
O247        C261   1.267       .  A
O248        C253   1.263       .  A
O249        C252   1.269       .  A
O250        C262   1.270       .  A
O251        C264   1.273       .  A
C252        O257   1.274       .  A
C252       C1224   1.489       .  S
C253       C1297   1.486       .  S
O255        C258   1.266       .  A
O256        C258   1.269       .  A
C258       C1448   1.470       .  S
O259        C264   1.266       .  A
O260        C262   1.271       .  A
C261        O263   1.281       .  A
C261       C1196   1.488       .  S
C262       C1213   1.490       .  S
C264       C1238   1.481       .  S
Fe265       O281   2.032   1_556  S
Fe265       O271   2.062       .  S
Fe265       O278   2.082       .  S
Fe265       O270   2.013       .  S
Fe265       O276   1.930   1_556  S
Fe266       O269   2.014       .  S
Fe266       O273   2.092       .  S
Fe266       O277   2.030   1_554  S
Fe266       O282   2.083       .  S
Fe266       O276   1.919       .  S
Fe267       O285   2.122       .  S
Fe267       O272   2.095   1_554  S
Fe267       O279   2.106       .  S
Fe267       O268   2.118   1_554  S
Fe267       O276   1.936       .  S
O268        C275   1.282       .  A
O269        C283   1.261       .  A
O270        C275   1.265       .  A
O271        C274   1.267   1_556  A
O272        C284   1.278   1_556  A
O273        C286   1.275       .  A
C274        O279   1.278       .  A
C274       C1140   1.484   1_455  S
C275       C1126   1.480       .  S
O277        C280   1.264       .  A
O278        C280   1.270       .  A
C280       C1280   1.466       .  S
O281        C286   1.262       .  A
O282        C284   1.273       .  A
C283        O285   1.278       .  A
C283       C1171   1.473       .  S
C284       C1182   1.491   1_554  S
C286       C1157   1.475       .  S
Fe287       O303   2.032       .  S
Fe287       O293   2.077       .  S
Fe287       O300   2.100       .  S
Fe287       O292   2.020       .  S
Fe287       O298   1.931       .  S
Fe288       O291   2.015       .  S
Fe288       O295   2.106       .  S
Fe288       O299   2.031       .  S
Fe288       O304   2.087       .  S
Fe288       O298   1.924       .  S
Fe289       O307   2.112       .  S
Fe289       O294   2.084       .  S
Fe289       O301   2.087       .  S
Fe289       O290   2.113       .  S
Fe289       O298   1.939       .  S
O290        C297   1.279       .  A
O291        C305   1.262       .  A
O292        C297   1.266       .  A
O293        C296   1.271       .  A
O294        C306   1.275       .  A
O295        C308   1.277       .  A
C296        O301   1.274       .  A
C296       C1098   1.479       .  S
C297       C1056   1.481       .  S
O299        C302   1.263       .  A
O300        C302   1.273       .  A
C302       C1084   1.472       .  S
O303        C308   1.264       .  A
O304        C306   1.274       .  A
C305        O307   1.277       .  A
C305       C1168   1.461       .  S
C306       C1070   1.484       .  S
C308       C1112   1.483       .  S
Fe309       O325   2.049       .  S
Fe309       O315   2.072       .  S
Fe309       O322   2.077       .  S
Fe309       O314   2.025       .  S
Fe309       O320   1.949       .  S
Fe310       O313   2.043       .  S
Fe310       O317   2.086       .  S
Fe310       O321   2.053       .  S
Fe310       O326   2.077       .  S
Fe310       O320   1.935       .  S
Fe311       O329   2.118       .  S
Fe311       O316   2.074       .  S
Fe311       O323   2.089       .  S
Fe311       O312   2.132       .  S
Fe311       O320   1.947       .  S
O312        C319   1.284       .  A
O313        C327   1.269       .  A
O314        C319   1.264       .  A
O315        C318   1.267       .  A
O316        C328   1.272       .  A
O317        C330   1.274       .  A
C318        O323   1.272       .  A
C318       C1000   1.495       .  S
C319       C1028   1.482       .  S
O321        C324   1.267       .  A
O322        C324   1.269       .  A
C324       C1087   1.480       .  S
O325        C330   1.267       .  A
O326        C328   1.271       .  A
C327        O329   1.282       .  A
C327        C989   1.490       .  S
C328       C1045   1.492       .  S
C330       C1017   1.477       .  S
Fe331       O347   2.043       .  S
Fe331       O337   2.069       .  S
Fe331       O344   2.075       .  S
Fe331       O336   2.026       .  S
Fe331       O342   1.945       .  S
Fe332       O335   2.043       .  S
Fe332       O339   2.096       .  S
Fe332       O343   2.044       .  S
Fe332       O348   2.085       .  S
Fe332       O342   1.948       .  S
Fe333       O351   2.116       .  S
Fe333       O338   2.074       .  S
Fe333       O345   2.096       .  S
Fe333       O334   2.124       .  S
Fe333       O342   1.953       .  S
O334        C341   1.280       .  A
O335        C349   1.270       .  A
O336        C341   1.262       .  A
O337        C340   1.270       .  A
O338        C350   1.269       .  A
O339        C352   1.271       .  A
C340        O345   1.275       .  A
C340        C944   1.502   1_655  S
C341       C1031   1.483       .  S
O343        C346   1.267       .  A
O344        C346   1.273       .  A
C346       C1367   1.478       .  S
O347        C352   1.264       .  A
O348        C350   1.271       .  A
C349        O351   1.282       .  A
C349        C930   1.484       .  S
C350        C972   1.500       .  S
C352        C958   1.475       .  S
Fe353       O369   2.055       .  S
Fe353       O359   2.074       .  S
Fe353       O366   2.076       .  S
Fe353       O358   2.027       .  S
Fe353       O364   1.944       .  S
Fe354       O357   2.042       .  S
Fe354       O361   2.085       .  S
Fe354       O365   2.047       .  S
Fe354       O370   2.082       .  S
Fe354       O364   1.939       .  S
Fe355       O373   2.109       .  S
Fe355       O360   2.078       .  S
Fe355       O367   2.090       .  S
Fe355       O356   2.118       .  S
Fe355       O364   1.949       .  S
O356        C363   1.278       .  A
O357        C371   1.268       .  A
O358        C363   1.263       .  A
O359        C362   1.269       .  A
O360        C372   1.272       .  A
O361        C374   1.271   1_545  A
C362        O367   1.274       .  A
C362       C1350   1.490       .  S
C363        C919   1.476       .  S
O365        C368   1.268       .  A
O366        C368   1.271       .  A
C368        C902   1.480       .  S
O369        C374   1.267   1_545  A
O370        C372   1.271       .  A
C371        O373   1.279       .  A
C371       C1896   1.479       .  S
C372       C1507   1.494       .  S
C374        C961   1.477       .  S
Fe375       O391   2.045       .  S
Fe375       O381   2.069       .  S
Fe375       O388   2.070       .  S
Fe375       O380   2.024       .  S
Fe375       O386   1.949       .  S
Fe376       O379   2.046       .  S
Fe376       O383   2.090       .  S
Fe376       O387   2.051       .  S
Fe376       O392   2.075       .  S
Fe376       O386   1.944       .  S
Fe377       O395   2.112       .  S
Fe377       O382   2.070       .  S
Fe377       O389   2.085       .  S
Fe377       O378   2.122       .  S
Fe377       O386   1.949       .  S
O378        C385   1.281       .  A
O379        C393   1.272       .  A
O380        C385   1.264       .  A
O381        C384   1.267       .  A
O382        C394   1.268       .  A
O383        C396   1.271   1_545  A
C384        O389   1.271       .  A
C384       C1073   1.489   1_655  S
C385        C916   1.479       .  S
O387        C390   1.269       .  A
O388        C390   1.269       .  A
C390        C888   1.478       .  S
O391        C396   1.266   1_545  A
O392        C394   1.268       .  A
C393        O395   1.282       .  A
C393       C1969   1.486       .  S
C394       C1787   1.487       .  S
C396       C1014   1.474       .  S
Fe397       O413   2.033   1_565  S
Fe397       O403   2.057       .  S
Fe397       O410   2.087   1_565  S
Fe397       O402   2.012       .  S
Fe397       O408   1.948       .  S
Fe398       O401   2.019       .  S
Fe398       O405   2.114   1_565  S
Fe398       O409   2.039       .  S
Fe398       O414   2.071       .  S
Fe398       O408   1.921       .  S
Fe399       O417   2.110       .  S
Fe399       O404   2.088       .  S
Fe399       O411   2.100       .  S
Fe399       O400   2.124       .  S
Fe399       O408   1.931       .  S
O400        C407   1.288       .  A
O401        C415   1.266       .  A
O402        C407   1.270       .  A
O403        C406   1.261       .  A
O404        C416   1.273       .  A
O405        C418   1.283       .  A
C406        O411   1.271       .  A
C406       C1941   1.479       .  S
C407       C1129   1.473       .  S
O409        C412   1.258   1_565  A
O410        C412   1.265       .  A
C412        C863   1.467       .  S
O413        C418   1.269       .  A
O414        C416   1.270       .  A
C415        O417   1.282       .  A
C415        C874   1.475       .  S
C416       C1227   1.481       .  S
C418       C1591   1.484       .  S
Fe419       O435   2.033   1_565  S
Fe419       O425   2.059       .  S
Fe419       O432   2.090   1_565  S
Fe419       O424   2.022       .  S
Fe419       O430   1.945       .  S
Fe420       O423   2.020       .  S
Fe420       O427   2.115   1_565  S
Fe420       O431   2.033       .  S
Fe420       O436   2.077       .  S
Fe420       O430   1.934       .  S
Fe421       O439   2.106       .  S
Fe421       O426   2.092       .  S
Fe421       O433   2.096       .  S
Fe421       O422   2.111       .  S
Fe421       O430   1.945       .  S
O422        C429   1.282       .  A
O423        C437   1.265       .  A
O424        C429   1.268       .  A
O425        C428   1.265       .  A
O426        C438   1.274       .  A
O427        C440   1.280       .  A
C428        O433   1.273       .  A
C428       C1630   1.480       .  S
C429       C1059   1.476       .  S
O431        C434   1.260   1_565  A
O432        C434   1.268       .  A
C434        C905   1.471       .  S
O435        C440   1.266       .  A
O436        C438   1.270       .  A
C437        O439   1.278       .  A
C437        C877   1.466       .  S
C438        C947   1.485       .  S
C440       C1518   1.484       .  S
Fe441       O457   2.034   1_566  S
Fe441       O447   2.063       .  S
Fe441       O454   2.094   1_565  S
Fe441       O446   2.013       .  S
Fe441       O452   1.948       .  S
Fe442       O445   2.019       .  S
Fe442       O449   2.122   1_565  S
Fe442       O453   2.035   1_554  S
Fe442       O458   2.083       .  S
Fe442       O452   1.928   1_554  S
Fe443       O461   2.121       .  S
Fe443       O448   2.083   1_554  S
Fe443       O455   2.086       .  S
Fe443       O444   2.122   1_554  S
Fe443       O452   1.939   1_554  S
O444        C451   1.285       .  A
O445        C459   1.265       .  A
O446        C451   1.267       .  A
O447        C450   1.265   1_556  A
O448        C460   1.271       .  A
O449        C462   1.283       .  A
C450        O455   1.270       .  A
C450       C2011   1.474       .  S
C451       C1409   1.470       .  S
O453        C456   1.259       .  A
O454        C456   1.269   1_545  A
C456        C832   1.469   1_565  S
O457        C462   1.265       .  A
O458        C460   1.271   1_554  A
C459        O461   1.283       .  A
C459        C846   1.477       .  S
C460       C1311   1.484       .  S
C462       C1871   1.490       .  S
Fe463       O479   2.033   1_565  S
Fe463       O469   2.053       .  S
Fe463       O476   2.078   1_565  S
Fe463       O468   2.013       .  S
Fe463       O474   1.947       .  S
Fe464       O467   2.026       .  S
Fe464       O471   2.120   1_565  S
Fe464       O475   2.040       .  S
Fe464       O480   2.074       .  S
Fe464       O474   1.935       .  S
Fe465       O483   2.119       .  S
Fe465       O470   2.085       .  S
Fe465       O477   2.095       .  S
Fe465       O466   2.126       .  S
Fe465       O474   1.943       .  S
O466        C473   1.288       .  A
O467        C481   1.267       .  A
O468        C473   1.268       .  A
O469        C472   1.261       .  A
O470        C482   1.271       .  A
O471        C484   1.282       .  A
C472        O477   1.270       .  A
C472       C1728   1.478       .  S
C473       C1339   1.479       .  S
O475        C478   1.260   1_565  A
O476        C478   1.265       .  A
C478        C891   1.469       .  S
O479        C484   1.268       .  A
O480        C482   1.269       .  A
C481        O483   1.284       .  A
C481        C849   1.480       .  S
C482       C1003   1.482       .  S
C484       C1798   1.487       .  S
Fe485       O501   2.045   1_545  S
Fe485       O491   2.080       .  S
Fe485       O498   2.075       .  S
Fe485       O490   2.028       .  S
Fe485       O496   1.953       .  S
Fe486       O489   2.061       .  S
Fe486       O493   2.099       .  S
Fe486       O497   2.054   1_554  S
Fe486       O502   2.087       .  S
Fe486       O496   1.946   1_554  S
Fe487       O505   2.101   1_556  S
Fe487       O492   2.073       .  S
Fe487       O499   2.087       .  S
Fe487       O488   2.122       .  S
Fe487       O496   1.951       .  S
O488        C495   1.279       .  A
O489        C503   1.272       .  A
O490        C495   1.263       .  A
O491        C494   1.269       .  A
O492        C504   1.271   1_556  A
O493        C506   1.274   1_545  A
C494        O499   1.272       .  A
C494       C1185   1.490       .  S
C495        C821   1.481       .  S
O497        C500   1.268       .  A
O498        C500   1.271       .  A
C500        C835   1.478       .  S
O501        C506   1.266   1_556  A
O502        C504   1.272       .  A
C503        O505   1.278       .  A
C503       C1689   1.489       .  S
C504       C1857   1.494       .  S
C506       C1322   1.479       .  S
Fe507       O523   2.040       .  S
Fe507       O513   2.073       .  S
Fe507       O520   2.071       .  S
Fe507       O512   2.020       .  S
Fe507       O518   1.948       .  S
Fe508       O511   2.042       .  S
Fe508       O515   2.099       .  S
Fe508       O519   2.049       .  S
Fe508       O524   2.080       .  S
Fe508       O518   1.946       .  S
Fe509       O527   2.119       .  S
Fe509       O514   2.068       .  S
Fe509       O521   2.083       .  S
Fe509       O510   2.131       .  S
Fe509       O518   1.949       .  S
O510        C517   1.282       .  A
O511        C525   1.269       .  A
O512        C517   1.262       .  A
O513        C516   1.268       .  A
O514        C526   1.269       .  A
O515        C528   1.274   1_545  A
C516        O521   1.271       .  A
C516       C1479   1.494       .  S
C517        C818   1.482       .  S
O519        C522   1.267       .  A
O520        C522   1.271       .  A
C522        C860   1.479       .  S
O523        C528   1.264   1_545  A
O524        C526   1.270       .  A
C525        O527   1.283       .  A
C525       C1619   1.491       .  S
C526       C1577   1.491       .  S
C528       C1241   1.476       .  S
Fe529       O545   2.028   1_556  S
Fe529       O535   2.060       .  S
Fe529       O542   2.088       .  S
Fe529       O534   2.014       .  S
Fe529       O540   1.944       .  S
Fe530       O533   2.012       .  S
Fe530       O537   2.102       .  S
Fe530       O541   2.034   1_554  S
Fe530       O546   2.065       .  S
Fe530       O540   1.928   1_554  S
Fe531       O549   2.113       .  S
Fe531       O536   2.092   1_554  S
Fe531       O543   2.095       .  S
Fe531       O532   2.119   1_554  S
Fe531       O540   1.935   1_554  S
O532        C539   1.286       .  A
O533        C547   1.265       .  A
O534        C539   1.268       .  A
O535        C538   1.264   1_556  A
O536        C548   1.274       .  A
O537        C550   1.279       .  A
C538        O543   1.271       .  A
C538       C1269   1.480       .  S
C539       C1549   1.474       .  S
O541        C544   1.259       .  A
O542        C544   1.268       .  A
C544        C790   1.464       .  S
O545        C550   1.266       .  A
O546        C548   1.268   1_554  A
C547        O549   1.281       .  A
C547        C804   1.468       .  S
C548       C2022   1.483       .  S
C550       C1154   1.478       .  S
Fe551       O567   2.035       .  S
Fe551       O557   2.060       .  S
Fe551       O564   2.092       .  S
Fe551       O556   2.022       .  S
Fe551       O562   1.949       .  S
Fe552       O555   2.022       .  S
Fe552       O559   2.109       .  S
Fe552       O563   2.035       .  S
Fe552       O568   2.072       .  S
Fe552       O562   1.929       .  S
Fe553       O571   2.106       .  S
Fe553       O558   2.086       .  S
Fe553       O565   2.091       .  S
Fe553       O554   2.111       .  S
Fe553       O562   1.939       .  S
O554        C561   1.284       .  A
O555        C569   1.267       .  A
O556        C561   1.269       .  A
O557        C560   1.265       .  A
O558        C570   1.272       .  A
O559        C572   1.280       .  A
C560        O565   1.271       .  A
C560       C1042   1.476   1_455  S
C561       C1493   1.472       .  S
O563        C566   1.259       .  A
O564        C566   1.268       .  A
C566        C779   1.470       .  S
O567        C572   1.265       .  A
O568        C570   1.269       .  A
C569        O571   1.280       .  A
C569        C807   1.474       .  S
C570       C1700   1.481       .  S
C572       C1115   1.484       .  S
Fe573       O589   2.044       .  S
Fe573       O579   2.074       .  S
Fe573       O586   2.075       .  S
Fe573       O578   2.022       .  S
Fe573       O584   1.944   1_556  S
Fe574       O577   2.043       .  S
Fe574       O581   2.093       .  S
Fe574       O585   2.041       .  S
Fe574       O590   2.088       .  S
Fe574       O584   1.941       .  S
Fe575       O593   2.117   1_556  S
Fe575       O580   2.076   1_556  S
Fe575       O587   2.089       .  S
Fe575       O576   2.125       .  S
Fe575       O584   1.945   1_556  S
O576        C583   1.280       .  A
O577        C591   1.268       .  A
O578        C583   1.262       .  A
O579        C582   1.270       .  A
O580        C592   1.272       .  A
O581        C594   1.274       .  A
C582        O587   1.274       .  A
C582       C1885   1.491       .  S
C583        C762   1.479       .  S
O585        C588   1.266   1_554  A
O586        C588   1.271       .  A
C588        C793   1.477       .  S
O589        C594   1.265   1_556  A
O590        C592   1.271       .  A
C591        O593   1.281       .  A
C591        C986   1.490       .  S
C592       C1143   1.498       .  S
C594       C2039   1.478       .  S
Fe595       O611   2.045       .  S
Fe595       O601   2.068       .  S
Fe595       O608   2.067       .  S
Fe595       O600   2.026       .  S
Fe595       O606   1.947       .  S
Fe596       O599   2.050       .  S
Fe596       O603   2.094       .  S
Fe596       O607   2.056       .  S
Fe596       O612   2.083       .  S
Fe596       O606   1.946       .  S
Fe597       O615   2.107       .  S
Fe597       O602   2.075       .  S
Fe597       O609   2.089       .  S
Fe597       O598   2.118       .  S
Fe597       O606   1.950       .  S
O598        C605   1.280       .  A
O599        C613   1.271       .  A
O600        C605   1.263       .  A
O601        C604   1.267       .  A
O602        C614   1.271       .  A
O603        C616   1.272       .  A
C604        O609   1.273       .  A
C604       C1563   1.491   1_655  S
C605        C765   1.480       .  S
O607        C610   1.269       .  A
O608        C610   1.270       .  A
C610        C748   1.477       .  S
O611        C616   1.265       .  A
O612        C614   1.270       .  A
C613        O615   1.280       .  A
C613        C933   1.483       .  S
C614       C1423   1.491       .  S
C616       C1927   1.476       .  S
Fe617       O633   2.035       .  S
Fe617       O623   2.052       .  S
Fe617       O630   2.084       .  S
Fe617       O622   2.023       .  S
Fe617       O628   1.951       .  S
Fe618       O621   2.019       .  S
Fe618       O625   2.109       .  S
Fe618       O629   2.037       .  S
Fe618       O634   2.071       .  S
Fe618       O628   1.934       .  S
Fe619       O637   2.093       .  S
Fe619       O624   2.088       .  S
Fe619       O631   2.091       .  S
Fe619       O620   2.100       .  S
Fe619       O628   1.945       .  S
O620        C627   1.281       .  A
O621        C635   1.266       .  A
O622        C627   1.269       .  A
O623        C626   1.262       .  A
O624        C636   1.272       .  A
O625        C638   1.279       .  A
C626        O631   1.270       .  A
C626       C1210   1.476       .  S
C627       C1829   1.469       .  S
O629        C632   1.260       .  A
O630        C632   1.266       .  A
C632        C751   1.470       .  S
O633        C638   1.268       .  A
O634        C636   1.269       .  A
C635        O637   1.277       .  A
C635        C737   1.461       .  S
C636       C1913   1.481       .  S
C638       C1437   1.486       .  S
Fe639       O655   2.036       .  S
Fe639       O645   2.067       .  S
Fe639       O652   2.099       .  S
Fe639       O644   2.023       .  S
Fe639       O650   1.945       .  S
Fe640       O643   2.008       .  S
Fe640       O647   2.106       .  S
Fe640       O651   2.026       .  S
Fe640       O656   2.080       .  S
Fe640       O650   1.924       .  S
Fe641       O659   2.108       .  S
Fe641       O646   2.090       .  S
Fe641       O653   2.092       .  S
Fe641       O642   2.108       .  S
Fe641       O650   1.939       .  S
O642        C649   1.282       .  A
O643        C657   1.265       .  A
O644        C649   1.268       .  A
O645        C648   1.267       .  A
O646        C658   1.273       .  A
O647        C660   1.278       .  A
C648        O653   1.273       .  A
C648        C975   1.479       .  S
C649       C1759   1.475       .  S
O651        C654   1.261       .  A
O652        C654   1.271       .  A
C654        C720   1.472       .  S
O655        C660   1.263       .  A
O656        C658   1.270       .  A
C657        O659   1.279       .  A
C657        C734   1.468       .  S
C658       C1644   1.487       .  S
C660       C1395   1.485       .  S
Fe661       O677   2.046       .  S
Fe661       O667   2.066       .  S
Fe661       O674   2.065       .  S
Fe661       O666   2.027       .  S
Fe661       O672   1.949       .  S
Fe662       O665   2.049       .  S
Fe662       O669   2.094       .  S
Fe662       O673   2.056       .  S
Fe662       O678   2.076       .  S
Fe662       O672   1.944       .  S
Fe663       O681   2.114       .  S
Fe663       O668   2.076       .  S
Fe663       O675   2.098       .  S
Fe663       O664   2.128       .  S
Fe663       O672   1.953       .  S
O664        C671   1.283       .  A
O665        C679   1.270       .  A
O666        C671   1.265       .  A
O667        C670   1.266       .  A
O668        C680   1.270       .  A
O669        C682   1.274       .  A
C670        O675   1.273       .  A
C670       C1532   1.502       .  S
C671        C706   1.482       .  S
O673        C676   1.267       .  A
O674        C676   1.267       .  A
C676        C723   1.476       .  S
O677        C682   1.268       .  A
O678        C680   1.271       .  A
C679        O681   1.282       .  A
C679       C1199   1.488       .  S
C680       C1381   1.494       .  S
C682       C1658   1.479       .  S
Fe683       O699   2.051       .  S
Fe683       O689   2.068       .  S
Fe683       O696   2.070       .  S
Fe683       O688   2.023       .  S
Fe683       O694   1.947       .  S
Fe684       O687   2.046       .  S
Fe684       O691   2.094       .  S
Fe684       O695   2.051       .  S
Fe684       O700   2.085       .  S
Fe684       O694   1.939       .  S
Fe685       O703   2.112       .  S
Fe685       O690   2.072       .  S
Fe685       O697   2.086       .  S
Fe685       O686   2.124       .  S
Fe685       O694   1.949       .  S
O686        C693   1.281       .  A
O687        C701   1.270       .  A
O688        C693   1.263       .  A
O689        C692   1.267       .  A
O690        C702   1.270       .  A
O691        C704   1.274       .  A
C692        O697   1.272       .  A
C692       C1773   1.488       .  S
C693        C709   1.478       .  S
O695        C698   1.268       .  A
O696        C698   1.269       .  A
C698        C776   1.479       .  S
O699        C704   1.267       .  A
O700        C702   1.270       .  A
C701        O703   1.281       .  A
C701       C1252   1.481       .  S
C702       C1101   1.497       .  S
C704       C1717   1.479       .  S
C705        C706   1.400       .  A
C705        C710   1.404       .  A
C705        H712   1.084       .  S
C706        C707   1.424       .  A
C707        C708   1.405       .  A
C707        N714   1.439       .  S
C708        C709   1.397       .  A
C708        H713   1.084       .  S
C709        C710   1.420       .  A
C710        N711   1.434       .  S
N711        H715   1.044       .  S
N711        H716   1.045       .  S
N714        H717   1.043       .  S
N714        H718   1.046       .  S
C719        C720   1.403       .  A
C719        C724   1.396       .  A
C719        H726   1.085       .  S
C720        C721   1.409       .  A
C721        C722   1.403       .  A
C721        N728   1.432       .  S
C722        C723   1.405       .  A
C722        H727   1.084       .  S
C723        C724   1.412       .  A
C724        N725   1.434       .  S
N725        H729   1.047       .  S
N725        H730   1.045       .  S
N728        H731   1.045       .  S
N728        H732   1.046       .  S
C733        C734   1.409       .  A
C733        C738   1.392       .  A
C733        H740   1.085       .  S
C734        C735   1.407       .  A
C735        C736   1.397       .  A
C735        N742   1.432       .  S
C736        C737   1.408       .  A
C736        H741   1.084       .  S
C737        C738   1.404       .  A
C738        N739   1.433       .  S
N739        H743   1.046       .  S
N739        H744   1.045       .  S
N742        H745   1.046       .  S
N742        H746   1.045       .  S
C747        C748   1.404       .  A
C747        C752   1.395       .  A
C747        H754   1.084       .  S
C748        C749   1.413       .  A
C749        C750   1.406       .  A
C749        N756   1.438       .  S
C750        C751   1.404       .  A
C750        H755   1.084       .  S
C751        C752   1.405       .  A
C752        N753   1.433       .  S
N753        H757   1.045       .  S
N753        H758   1.046       .  S
N756        H759   1.046       .  S
N756        H760   1.046       .  S
C761        C762   1.408       .  A
C761        C766   1.405       .  A
C761        H768   1.085       .  S
C762        C763   1.408       .  A
C763        C764   1.403       .  A
C763        N770   1.432       .  S
C764        C765   1.411       .  A
C764        H769   1.085       .  S
C765        C766   1.413       .  A
C766        N767   1.438       .  S
N767        H771   1.046       .  S
N767        H772   1.043       .  S
N770        H773   1.045       .  S
N770        H774   1.046       .  S
C775        C776   1.406       .  A
C775        C780   1.403       .  A
C775        H782   1.084       .  S
C776        C777   1.413       .  A
C777        C778   1.398       .  A
C777        N784   1.433       .  S
C778        C779   1.402       .  A
C778        H783   1.084       .  S
C779        C780   1.410       .  A
C780        N781   1.437       .  S
N781        H785   1.046       .  S
N781        H786   1.045       .  S
N784        H787   1.046       .  S
N784        H788   1.045       .  S
C789        C790   1.401       .  A
C789        C794   1.399       .  A
C789        H796   1.085       .  S
C790        C791   1.413       .  A
C791        C792   1.397   1_455  A
C791        N798   1.438       .  S
C792        C793   1.404       .  A
C792        H797   1.084       .  S
C793        C794   1.413   1_655  A
C794        N795   1.433       .  S
N795        H799   1.045       .  S
N795        H800   1.046   1_556  S
N798        H801   1.045       .  S
N798        H802   1.046       .  S
C803        C804   1.408       .  A
C803        C808   1.397       .  A
C803        H810   1.085       .  S
C804        C805   1.406       .  A
C805        C806   1.398       .  A
C805        N812   1.433       .  S
C806        C807   1.411       .  A
C806        H811   1.084       .  S
C807        C808   1.408       .  A
C808        N809   1.433       .  S
N809        H813   1.046       .  S
N809        H814   1.044       .  S
N812        H815   1.046       .  S
N812        H816   1.045       .  S
C817        C818   1.411       .  A
C817        C822   1.411       .  A
C817        H824   1.084       .  S
C818        C819   1.408       .  A
C819        C820   1.404       .  A
C819        N826   1.432       .  S
C820        C821   1.409       .  A
C820        H825   1.084       .  S
C821        C822   1.406       .  A
C822        N823   1.437       .  S
N823        H827   1.046       .  S
N823        H828   1.046       .  S
N826        H829   1.045       .  S
N826        H830   1.045       .  S
C831        C832   1.402       .  A
C831        C836   1.401       .  A
C831        H838   1.084       .  S
C832        C833   1.410   1_545  A
C833        C834   1.402   1_565  A
C833        N840   1.438       .  S
C834        C835   1.404       .  A
C834        H839   1.083   1_545  S
C835        C836   1.410       .  A
C836        N837   1.432       .  S
N837        H841   1.046       .  S
N837        H842   1.045       .  S
N840        H843   1.046       .  S
N840        H844   1.046       .  S
C845        C846   1.397       .  A
C845        C850   1.405       .  A
C845        H852   1.084       .  S
C846        C847   1.416       .  A
C847        C848   1.403       .  A
C847        N854   1.433       .  S
C848        C849   1.397       .  A
C848        H853   1.084       .  S
C849        C850   1.418       .  A
C850        N851   1.433       .  S
N851        H855   1.046       .  S
N851        H856   1.045       .  S
N854        H857   1.046       .  S
N854        H858   1.045       .  S
C859        C860   1.405       .  A
C859        C864   1.396       .  A
C859        H866   1.084       .  S
C860        C861   1.415       .  A
C861        C862   1.404       .  A
C861        N868   1.438       .  S
C862        C863   1.403       .  A
C862        H867   1.084       .  S
C863        C864   1.405       .  A
C864        N865   1.433   1_545  S
N865        H869   1.046       .  S
N865        H870   1.046       .  S
N868        H871   1.046       .  S
N868        H872   1.046       .  S
C873        C874   1.397       .  A
C873        C878   1.403       .  A
C873        H880   1.084       .  S
C874        C875   1.418       .  A
C875        C876   1.401       .  A
C875        N882   1.433       .  S
C876        C877   1.395       .  A
C876        H881   1.084       .  S
C877        C878   1.414       .  A
C878        N879   1.438       .  S
N879        H883   1.045       .  S
N879        H884   1.046       .  S
N882        H885   1.046       .  S
N882        H886   1.046       .  S
C887        C888   1.405       .  A
C887        C892   1.402       .  A
C887        H894   1.084       .  S
C888        C889   1.412       .  A
C889        C890   1.397       .  A
C889        N896   1.433   1_545  S
C890        C891   1.401       .  A
C890        H895   1.084   1_545  S
C891        C892   1.411       .  A
C892        N893   1.438       .  S
N893        H897   1.046       .  S
N893        H898   1.045       .  S
N896        H899   1.046       .  S
N896        H900   1.046       .  S
C901        C902   1.407   1_455  A
C901        C906   1.404       .  A
C901        H908   1.084       .  S
C902        C903   1.417       .  A
C903        C904   1.394   1_645  A
C903        N910   1.433   1_545  S
C904        C905   1.402   1_565  A
C904        H909   1.085       .  S
C905        C906   1.410       .  A
C906        N907   1.438       .  S
N907        H911   1.046       .  S
N907        H912   1.046       .  S
N910        H913   1.045       .  S
N910        H914   1.045       .  S
C915        C916   1.399       .  A
C915        C920   1.408       .  A
C915        H922   1.084       .  S
C916        C917   1.415       .  A
C917        C918   1.406       .  A
C917        N924   1.433       .  S
C918        C919   1.398       .  A
C918        H923   1.084       .  S
C919        C920   1.414       .  A
C920        N921   1.433       .  S
N921        H925   1.046       .  S
N921        H926   1.046       .  S
N924        H927   1.045       .  S
N924        H928   1.046       .  S
C929        C930   1.407       .  A
C929        C934   1.408       .  A
C929        H936   1.084       .  S
C930        C931   1.408       .  A
C931        C932   1.405       .  A
C931        N938   1.432       .  S
C932        C933   1.407       .  A
C932        H937   1.084       .  S
C933        C934   1.411       .  A
C934        N935   1.437       .  S
N935        H939   1.046       .  S
N935        H940   1.045       .  S
N938        H941   1.045       .  S
N938        H942   1.046       .  S
C943        C944   1.411       .  A
C943        C948   1.410       .  A
C943        H950   1.083       .  S
C944        C945   1.416       .  A
C945        C946   1.413       .  A
C945        N952   1.432       .  S
C946        C947   1.404       .  A
C946        H951   1.084       .  S
C947        C948   1.408       .  A
C948        N949   1.438       .  S
N949        H953   1.046       .  S
N949        H954   1.045       .  S
N952        H955   1.046       .  S
N952        H956   1.046       .  S
C957        C958   1.405       .  A
C957        C962   1.406       .  A
C957        H964   1.084       .  S
C958        C959   1.408       .  A
C959        C960   1.401       .  A
C959        N966   1.433       .  S
C960        C961   1.404       .  A
C960        H965   1.084       .  S
C961        C962   1.409       .  A
C962        N963   1.433       .  S
N963        H967   1.046       .  S
N963        H968   1.045       .  S
N966        H969   1.046       .  S
N966        H970   1.046       .  S
C971        C972   1.411       .  A
C971        C976   1.411       .  A
C971        H978   1.083       .  S
C972        C973   1.416       .  A
C973        C974   1.407       .  A
C973        N980   1.432       .  S
C974        C975   1.401       .  A
C974        H979   1.084       .  S
C975        C976   1.408       .  A
C976        N977   1.437       .  S
N977        H981   1.046       .  S
N977        H982   1.046       .  S
N980        H983   1.045       .  S
N980        H984   1.045       .  S
C985        C986   1.409       .  A
C985        C990   1.410       .  A
C985        H992   1.084       .  S
C986        C987   1.414       .  A
C987        C988   1.402       .  A
C987        N994   1.432       .  S
C988        C989   1.408       .  A
C988        H993   1.084       .  S
C989        C990   1.412       .  A
C990        N991   1.437       .  S
N991        H995   1.046       .  S
N991        H996   1.045       .  S
N994        H997   1.045       .  S
N994        H998   1.045       .  S
C999       C1000   1.407       .  A
C999       C1004   1.412       .  A
C999       H1006   1.083       .  S
C1000      C1001   1.415       .  A
C1001      C1002   1.408       .  A
C1001      N1008   1.432       .  S
C1002      C1003   1.401       .  A
C1002      H1007   1.084       .  S
C1003      C1004   1.412       .  A
C1004      N1005   1.438       .  S
N1005      H1009   1.045       .  S
N1005      H1010   1.045       .  S
N1008      H1011   1.045       .  S
N1008      H1012   1.046       .  S
C1013      C1014   1.404       .  A
C1013      C1018   1.400       .  A
C1013      H1020   1.084       .  S
C1014      C1015   1.408       .  A
C1015      C1016   1.402       .  A
C1015      N1022   1.438       .  S
C1016      C1017   1.405       .  A
C1016      H1021   1.084       .  S
C1017      C1018   1.416       .  A
C1018      N1019   1.434       .  S
N1019      H1023   1.044       .  S
N1019      H1024   1.046       .  S
N1022      H1025   1.046       .  S
N1022      H1026   1.046       .  S
C1027      C1028   1.399       .  A
C1027      C1032   1.404       .  A
C1027      H1034   1.084       .  S
C1028      C1029   1.423       .  A
C1029      C1030   1.408       .  A
C1029      N1036   1.439       .  S
C1030      C1031   1.399       .  A
C1030      H1035   1.084       .  S
C1031      C1032   1.420       .  A
C1032      N1033   1.434       .  S
N1033      H1037   1.044       .  S
N1033      H1038   1.044       .  S
N1036      H1039   1.045       .  S
N1036      H1040   1.045       .  S
C1041      C1042   1.400       .  A
C1041      C1046   1.407       .  A
C1041      H1048   1.084   1_655  S
C1042      C1043   1.410       .  A
C1043      C1044   1.408       .  A
C1043      N1050   1.437       .  S
C1044      C1045   1.406       .  A
C1044      H1049   1.083       .  S
C1045      C1046   1.416       .  A
C1046      N1047   1.433       .  S
N1047      H1051   1.046       .  S
N1047      H1052   1.045       .  S
N1050      H1053   1.046       .  S
N1050      H1054   1.045       .  S
C1055      C1056   1.410       .  A
C1055      C1060   1.394       .  A
C1055      H1062   1.084       .  S
C1056      C1057   1.412       .  A
C1057      C1058   1.398       .  A
C1057      N1064   1.432       .  S
C1058      C1059   1.409       .  A
C1058      H1063   1.084       .  S
C1059      C1060   1.409       .  A
C1060      N1061   1.433       .  S
N1061      H1065   1.046       .  S
N1061      H1066   1.045       .  S
N1064      H1067   1.045       .  S
N1064      H1068   1.045       .  S
C1069      C1070   1.403   1_545  A
C1069      C1074   1.409       .  A
C1069      H1076   1.084   1_545  S
C1070      C1071   1.412   1_565  A
C1071      C1072   1.410       .  A
C1071      N1078   1.437       .  S
C1072      C1073   1.405       .  A
C1072      H1077   1.084       .  S
C1073      C1074   1.413       .  A
C1074      N1075   1.432       .  S
N1075      H1079   1.046       .  S
N1075      H1080   1.046       .  S
N1078      H1081   1.045       .  S
N1078      H1082   1.046       .  S
C1083      C1084   1.404       .  A
C1083      C1088   1.404   1_455  A
C1083      H1090   1.084       .  S
C1084      C1085   1.407       .  A
C1085      C1086   1.401       .  A
C1085      N1092   1.432       .  S
C1086      C1087   1.405   1_455  A
C1086      H1091   1.084       .  S
C1087      C1088   1.415       .  A
C1088      N1089   1.438       .  S
N1089      H1093   1.046       .  S
N1089      H1094   1.046       .  S
N1092      H1095   1.045       .  S
N1092      H1096   1.045       .  S
C1097      C1098   1.402       .  A
C1097      C1102   1.404       .  A
C1097      H1104   1.084       .  S
C1098      C1099   1.416       .  A
C1099      C1100   1.405       .  A
C1099      N1106   1.439       .  S
C1100      C1101   1.408       .  A
C1100      H1105   1.083       .  S
C1101      C1102   1.422       .  A
C1102      N1103   1.433       .  S
N1103      H1107   1.044       .  S
N1103      H1108   1.046       .  S
N1106      H1109   1.044       .  S
N1106      H1110   1.046       .  S
C1111      C1112   1.402       .  A
C1111      C1116   1.399       .  A
C1111      H1118   1.084       .  S
C1112      C1113   1.415       .  A
C1113      C1114   1.403       .  A
C1113      N1120   1.439       .  S
C1114      C1115   1.404       .  A
C1114      H1119   1.084       .  S
C1115      C1116   1.421       .  A
C1116      N1117   1.434       .  S
N1117      H1121   1.042       .  S
N1117      H1122   1.047       .  S
N1120      H1123   1.046       .  S
N1120      H1124   1.046       .  S
C1125      C1126   1.411       .  A
C1125      C1130   1.402       .  A
C1125      H1132   1.084       .  S
C1126      C1127   1.405       .  A
C1127      C1128   1.400       .  A
C1127      N1134   1.432       .  S
C1128      C1129   1.409       .  A
C1128      H1133   1.084       .  S
C1129      C1130   1.406       .  A
C1130      N1131   1.438       .  S
N1131      H1135   1.046       .  S
N1131      H1136   1.046       .  S
N1134      H1137   1.046       .  S
N1134      H1138   1.046       .  S
C1139      C1140   1.403       .  A
C1139      C1144   1.408       .  A
C1139      H1146   1.084   1_655  S
C1140      C1141   1.412   1_554  A
C1141      C1142   1.408       .  A
C1141      N1148   1.438       .  S
C1142      C1143   1.407   1_556  A
C1142      H1147   1.084       .  S
C1143      C1144   1.423       .  A
C1144      N1145   1.432       .  S
N1145      H1149   1.045       .  S
N1145      H1150   1.045       .  S
N1148      H1151   1.045       .  S
N1148      H1152   1.046       .  S
C1153      C1154   1.403       .  A
C1153      C1158   1.396       .  A
C1153      H1160   1.084       .  S
C1154      C1155   1.415       .  A
C1155      C1156   1.401       .  A
C1155      N1162   1.439       .  S
C1156      C1157   1.403       .  A
C1156      H1161   1.084       .  S
C1157      C1158   1.418       .  A
C1158      N1159   1.434       .  S
N1159      H1163   1.043       .  S
N1159      H1164   1.045       .  S
N1162      H1165   1.045       .  S
N1162      H1166   1.046       .  S
C1167      C1168   1.408       .  A
C1167      C1172   1.401       .  A
C1167      H1174   1.084       .  S
C1168      C1169   1.404       .  A
C1169      C1170   1.394       .  A
C1169      N1176   1.433       .  S
C1170      C1171   1.410       .  A
C1170      H1175   1.085       .  S
C1171      C1172   1.406       .  A
C1172      N1173   1.432       .  S
N1173      H1177   1.046       .  S
N1173      H1178   1.045       .  S
N1176      H1179   1.046       .  S
N1176      H1180   1.045       .  S
C1181      C1182   1.405   1_545  A
C1181      C1186   1.413       .  A
C1181      H1188   1.084   1_545  S
C1182      C1183   1.414   1_566  A
C1183      C1184   1.407       .  A
C1183      N1190   1.433   1_545  S
C1184      C1185   1.404   1_554  A
C1184      H1189   1.084       .  S
C1185      C1186   1.412       .  A
C1186      N1187   1.431       .  S
N1187      H1191   1.045       .  S
N1187      H1192   1.046       .  S
N1190      H1193   1.045   1_565  S
N1190      H1194   1.046       .  S
C1195      C1196   1.408       .  A
C1195      C1200   1.410       .  A
C1195      H1202   1.084       .  S
C1196      C1197   1.408       .  A
C1197      C1198   1.407       .  A
C1197      N1204   1.432       .  S
C1198      C1199   1.408       .  A
C1198      H1203   1.084       .  S
C1199      C1200   1.412       .  A
C1200      N1201   1.438       .  S
N1201      H1205   1.046       .  S
N1201      H1206   1.045       .  S
N1204      H1207   1.046       .  S
N1204      H1208   1.045       .  S
C1209      C1210   1.402       .  A
C1209      C1214   1.408       .  A
C1209      H1216   1.084       .  S
C1210      C1211   1.417       .  A
C1211      C1212   1.403       .  A
C1211      N1218   1.439       .  S
C1212      C1213   1.405       .  A
C1212      H1217   1.084       .  S
C1213      C1214   1.413       .  A
C1214      N1215   1.432       .  S
N1215      H1219   1.046       .  S
N1215      H1220   1.046       .  S
N1218      H1221   1.044       .  S
N1218      H1222   1.045       .  S
C1223      C1224   1.404       .  A
C1223      C1228   1.406       .  A
C1223      H1230   1.084       .  S
C1224      C1225   1.417       .  A
C1225      C1226   1.413       .  A
C1225      N1232   1.437       .  S
C1226      C1227   1.402       .  A
C1226      H1231   1.084       .  S
C1227      C1228   1.409       .  A
C1228      N1229   1.433       .  S
N1229      H1233   1.045       .  S
N1229      H1234   1.045       .  S
N1232      H1235   1.046       .  S
N1232      H1236   1.046       .  S
C1237      C1238   1.404       .  A
C1237      C1242   1.400       .  A
C1237      H1244   1.084       .  S
C1238      C1239   1.417       .  A
C1239      C1240   1.400       .  A
C1239      N1246   1.434       .  S
C1240      C1241   1.403       .  A
C1240      H1245   1.084       .  S
C1241      C1242   1.415       .  A
C1242      N1243   1.434       .  S
N1243      H1247   1.044       .  S
N1243      H1248   1.046       .  S
N1246      H1249   1.046       .  S
N1246      H1250   1.043       .  S
C1251      C1252   1.400       .  A
C1251      C1256   1.408       .  A
C1251      H1258   1.084       .  S
C1252      C1253   1.412       .  A
C1253      C1254   1.406       .  A
C1253      N1260   1.432       .  S
C1254      C1255   1.402       .  A
C1254      H1259   1.084       .  S
C1255      C1256   1.418       .  A
C1256      N1257   1.438       .  S
N1257      H1261   1.045       .  S
N1257      H1262   1.046       .  S
N1260      H1263   1.046       .  S
N1260      H1264   1.045       .  S
C1265      C1266   1.405   1_556  A
C1265      C1270   1.406       .  A
C1265      H1272   1.084       .  S
C1266      C1267   1.415       .  A
C1267      C1268   1.409       .  A
C1267      N1274   1.432       .  S
C1268      C1269   1.402       .  A
C1268      H1273   1.084       .  S
C1269      C1270   1.409   1_554  A
C1270      N1271   1.433       .  S
N1271      H1275   1.045       .  S
N1271      H1276   1.046       .  S
N1274      H1277   1.046       .  S
N1274      H1278   1.046       .  S
C1279      C1280   1.402       .  A
C1279      C1284   1.395       .  A
C1279      H1286   1.085       .  S
C1280      C1281   1.408       .  A
C1281      C1282   1.398       .  A
C1281      N1288   1.433       .  S
C1282      C1283   1.403       .  A
C1282      H1287   1.084       .  S
C1283      C1284   1.410       .  A
C1284      N1285   1.433       .  S
N1285      H1289   1.045       .  S
N1285      H1290   1.046       .  S
N1288      H1291   1.046       .  S
N1288      H1292   1.046       .  S
C1293      C1294   1.409       .  A
C1293      C1298   1.407       .  A
C1293      H1300   1.085       .  S
C1294      C1295   1.407       .  A
C1295      C1296   1.413       .  A
C1295      N1302   1.437       .  S
C1296      C1297   1.411       .  A
C1296      H1301   1.084       .  S
C1297      C1298   1.413       .  A
C1298      N1299   1.438       .  S
N1299      H1303   1.046       .  S
N1299      H1304   1.044       .  S
N1302      H1305   1.045       .  S
N1302      H1306   1.046       .  S
C1307      C1308   1.410       .  A
C1307      C1312   1.411       .  A
C1307      H1314   1.084       .  S
C1308      C1309   1.417   1_556  A
C1309      C1310   1.413       .  A
C1309      N1316   1.438       .  S
C1310      C1311   1.404   1_554  A
C1310      H1315   1.084       .  S
C1311      C1312   1.408       .  A
C1312      N1313   1.438       .  S
N1313      H1317   1.046       .  S
N1313      H1318   1.045       .  S
N1316      H1319   1.045       .  S
N1316      H1320   1.046       .  S
C1321      C1322   1.405       .  A
C1321      C1326   1.405       .  A
C1321      H1328   1.084       .  S
C1322      C1323   1.412       .  A
C1323      C1324   1.405       .  A
C1323      N1330   1.438       .  S
C1324      C1325   1.404       .  A
C1324      H1329   1.084       .  S
C1325      C1326   1.409       .  A
C1326      N1327   1.433       .  S
N1327      H1331   1.046       .  S
N1327      H1332   1.046       .  S
N1330      H1333   1.045       .  S
N1330      H1334   1.046       .  S
C1335      C1336   1.399       .  A
C1335      C1340   1.403       .  A
C1335      H1342   1.083       .  S
C1336      C1337   1.419       .  A
C1337      C1338   1.402       .  A
C1337      N1344   1.433       .  S
C1338      C1339   1.398       .  A
C1338      H1343   1.084       .  S
C1339      C1340   1.419       .  A
C1340      N1341   1.439       .  S
N1341      H1345   1.046   1_565  S
N1341      H1346   1.045       .  S
N1344      H1347   1.046       .  S
N1344      H1348   1.046       .  S
C1349      C1350   1.409       .  A
C1349      C1354   1.413       .  A
C1349      H1356   1.084       .  S
C1350      C1351   1.411       .  A
C1351      C1352   1.407       .  A
C1351      N1358   1.433       .  S
C1352      C1353   1.405   1_545  A
C1352      H1357   1.084       .  S
C1353      C1354   1.410   1_565  A
C1354      N1355   1.437   1_545  S
N1355      H1359   1.046       .  S
N1355      H1360   1.045       .  S
N1358      H1361   1.046       .  S
N1358      H1362   1.046       .  S
C1363      C1364   1.401       .  A
C1363      C1368   1.400       .  A
C1363      H1370   1.085       .  S
C1364      C1365   1.408       .  A
C1365      C1366   1.400       .  A
C1365      N1372   1.438       .  S
C1366      C1367   1.404       .  A
C1366      H1371   1.083       .  S
C1367      C1368   1.412       .  A
C1368      N1369   1.433       .  S
N1369      H1373   1.045       .  S
N1369      H1374   1.045       .  S
N1372      H1375   1.045       .  S
N1372      H1376   1.046       .  S
C1377      C1378   1.403       .  A
C1377      C1382   1.402       .  A
C1377      H1384   1.084       .  S
C1378      C1379   1.407       .  A
C1379      C1380   1.408       .  A
C1379      N1386   1.438       .  S
C1380      C1381   1.410       .  A
C1380      H1385   1.084       .  S
C1381      C1382   1.419       .  A
C1382      N1383   1.432       .  S
N1383      H1387   1.046       .  S
N1383      H1388   1.042       .  S
N1386      H1389   1.045       .  S
N1386      H1390   1.045       .  S
C1391      C1392   1.402       .  A
C1391      C1396   1.398       .  A
C1391      H1398   1.084       .  S
C1392      C1393   1.416       .  A
C1393      C1394   1.404       .  A
C1393      N1400   1.437       .  S
C1394      C1395   1.403       .  A
C1394      H1399   1.084       .  S
C1395      C1396   1.420       .  A
C1396      N1397   1.433       .  S
N1397      H1401   1.042       .  S
N1397      H1402   1.045       .  S
N1400      H1403   1.045       .  S
N1400      H1404   1.046       .  S
C1405      C1406   1.401       .  A
C1405      C1410   1.400       .  A
C1405      H1412   1.083       .  S
C1406      C1407   1.424       .  A
C1407      C1408   1.400       .  A
C1407      N1414   1.433       .  S
C1408      C1409   1.394       .  A
C1408      H1413   1.084       .  S
C1409      C1410   1.412       .  A
C1410      N1411   1.433       .  S
N1411      H1415   1.045       .  S
N1411      H1416   1.046       .  S
N1414      H1417   1.046       .  S
N1414      H1418   1.045       .  S
C1419      C1420   1.402       .  A
C1419      C1424   1.409       .  A
C1419      H1426   1.084       .  S
C1420      C1421   1.420       .  A
C1421      C1422   1.404       .  A
C1421      N1428   1.439       .  S
C1422      C1423   1.404       .  A
C1422      H1427   1.084       .  S
C1423      C1424   1.413       .  A
C1424      N1425   1.432       .  S
N1425      H1429   1.046       .  S
N1425      H1430   1.045       .  S
N1428      H1431   1.044       .  S
N1428      H1432   1.045       .  S
C1433      C1434   1.408       .  A
C1433      C1438   1.397       .  A
C1433      H1440   1.084       .  S
C1434      C1435   1.412       .  A
C1435      C1436   1.406       .  A
C1435      N1442   1.437       .  S
C1436      C1437   1.409       .  A
C1436      H1441   1.084       .  S
C1437      C1438   1.416       .  A
C1438      N1439   1.433       .  S
N1439      H1443   1.044       .  S
N1439      H1444   1.045       .  S
N1442      H1445   1.046       .  S
N1442      H1446   1.046       .  S
C1447      C1448   1.403       .  A
C1447      C1452   1.396       .  A
C1447      H1454   1.084       .  S
C1448      C1449   1.413       .  A
C1449      C1450   1.401       .  A
C1449      N1456   1.438       .  S
C1450      C1451   1.401       .  A
C1450      H1455   1.084       .  S
C1451      C1452   1.405       .  A
C1452      N1453   1.433       .  S
N1453      H1457   1.046       .  S
N1453      H1458   1.046       .  S
N1456      H1459   1.046       .  S
N1456      H1460   1.046       .  S
C1461      C1462   1.410       .  A
C1461      C1466   1.397       .  A
C1461      H1468   1.085       .  S
C1462      C1463   1.404       .  A
C1463      C1464   1.408       .  A
C1463      N1470   1.437       .  S
C1464      C1465   1.411       .  A
C1464      H1469   1.084       .  S
C1465      C1466   1.404       .  A
C1466      N1467   1.433       .  S
N1467      H1471   1.046       .  S
N1467      H1472   1.045       .  S
N1470      H1473   1.045       .  S
N1470      H1474   1.046       .  S
C1475      C1476   1.403   1_545  A
C1475      C1480   1.403       .  A
C1475      H1482   1.084       .  S
C1476      C1477   1.410       .  A
C1477      C1478   1.414   1_565  A
C1477      N1484   1.437       .  S
C1478      C1479   1.410       .  A
C1478      H1483   1.084       .  S
C1479      C1480   1.419       .  A
C1480      N1481   1.433       .  S
N1481      H1485   1.045       .  S
N1481      H1486   1.046       .  S
N1484      H1487   1.045       .  S
N1484      H1488   1.046       .  S
C1489      C1490   1.401       .  A
C1489      C1494   1.401       .  A
C1489      H1496   1.084       .  S
C1490      C1491   1.419       .  A
C1491      C1492   1.399       .  A
C1491      N1498   1.433       .  S
C1492      C1493   1.397       .  A
C1492      H1497   1.084       .  S
C1493      C1494   1.412       .  A
C1494      N1495   1.433       .  S
N1495      H1499   1.045       .  S
N1495      H1500   1.046       .  S
N1498      H1501   1.046       .  S
N1498      H1502   1.046       .  S
C1503      C1504   1.401       .  A
C1503      C1508   1.409       .  A
C1503      H1510   1.084   1_655  S
C1504      C1505   1.409       .  A
C1505      C1506   1.407       .  A
C1505      N1512   1.432       .  S
C1506      C1507   1.406       .  A
C1506      H1511   1.084       .  S
C1507      C1508   1.417       .  A
C1508      N1509   1.432       .  S
N1509      H1513   1.045       .  S
N1509      H1514   1.046       .  S
N1512      H1515   1.046       .  S
N1512      H1516   1.046       .  S
C1517      C1518   1.402       .  A
C1517      C1522   1.401       .  A
C1517      H1524   1.084       .  S
C1518      C1519   1.413       .  A
C1519      C1520   1.402       .  A
C1519      N1526   1.433       .  S
C1520      C1521   1.403       .  A
C1520      H1525   1.084       .  S
C1521      C1522   1.423       .  A
C1522      N1523   1.434       .  S
N1523      H1527   1.043       .  S
N1523      H1528   1.046       .  S
N1526      H1529   1.045       .  S
N1526      H1530   1.045       .  S
C1531      C1532   1.409       .  A
C1531      C1536   1.413       .  A
C1531      H1538   1.083       .  S
C1532      C1533   1.419       .  A
C1533      C1534   1.409       .  A
C1533      N1540   1.433       .  S
C1534      C1535   1.400       .  A
C1534      H1539   1.084       .  S
C1535      C1536   1.409       .  A
C1536      N1537   1.431       .  S
N1537      H1541   1.046       .  S
N1537      H1542   1.045       .  S
N1540      H1543   1.046       .  S
N1540      H1544   1.046       .  S
C1545      C1546   1.413       .  A
C1545      C1550   1.398       .  A
C1545      H1552   1.084       .  S
C1546      C1547   1.410       .  A
C1547      C1548   1.404       .  A
C1547      N1554   1.437       .  S
C1548      C1549   1.409       .  A
C1548      H1553   1.084       .  S
C1549      C1550   1.401       .  A
C1550      N1551   1.433       .  S
N1551      H1555   1.045       .  S
N1551      H1556   1.046       .  S
N1554      H1557   1.046       .  S
N1554      H1558   1.046       .  S
C1559      C1560   1.403       .  A
C1559      C1564   1.406       .  A
C1559      H1566   1.084       .  S
C1560      C1561   1.419       .  A
C1561      C1562   1.406       .  A
C1561      N1568   1.439       .  S
C1562      C1563   1.405       .  A
C1562      H1567   1.084       .  S
C1563      C1564   1.419       .  A
C1564      N1565   1.433       .  S
N1565      H1569   1.044       .  S
N1565      H1570   1.046       .  S
N1568      H1571   1.043       .  S
N1568      H1572   1.046       .  S
C1573      C1574   1.403       .  A
C1573      C1578   1.405       .  A
C1573      H1580   1.084       .  S
C1574      C1575   1.406       .  A
C1575      C1576   1.407       .  A
C1575      N1582   1.432       .  S
C1576      C1577   1.409       .  A
C1576      H1581   1.084       .  S
C1577      C1578   1.414       .  A
C1578      N1579   1.433       .  S
N1579      H1583   1.046       .  S
N1579      H1584   1.046       .  S
N1582      H1585   1.046       .  S
N1582      H1586   1.046       .  S
C1587      C1588   1.408       .  A
C1587      C1592   1.401       .  A
C1587      H1594   1.084       .  S
C1588      C1589   1.409       .  A
C1589      C1590   1.403       .  A
C1589      N1596   1.433       .  S
C1590      C1591   1.409       .  A
C1590      H1595   1.084       .  S
C1591      C1592   1.409       .  A
C1592      N1593   1.432       .  S
N1593      H1597   1.046       .  S
N1593      H1598   1.044       .  S
N1596      H1599   1.045       .  S
N1596      H1600   1.045       .  S
C1601      C1602   1.394       .  A
C1601      C1606   1.400       .  A
C1601      H1608   1.084       .  S
C1602      C1603   1.415       .  A
C1603      C1604   1.401       .  A
C1603      N1610   1.433       .  S
C1604      C1605   1.395       .  A
C1604      H1609   1.084       .  S
C1605      C1606   1.424       .  A
C1606      N1607   1.438       .  S
N1607      H1611   1.045       .  S
N1607      H1612   1.042       .  S
N1610      H1613   1.046       .  S
N1610      H1614   1.045       .  S
C1615      C1616   1.401       .  A
C1615      C1620   1.402       .  A
C1615      H1622   1.084       .  S
C1616      C1617   1.417       .  A
C1617      C1618   1.403       .  A
C1617      N1624   1.434       .  S
C1618      C1619   1.405       .  A
C1618      H1623   1.084       .  S
C1619      C1620   1.423       .  A
C1620      N1621   1.434       .  S
N1621      H1625   1.043       .  S
N1621      H1626   1.045       .  S
N1624      H1627   1.043       .  S
N1624      H1628   1.046       .  S
C1629      C1630   1.401       .  A
C1629      C1634   1.405   1_565  A
C1629      H1636   1.084       .  S
C1630      C1631   1.411       .  A
C1631      C1632   1.408   1_565  A
C1631      N1638   1.438       .  S
C1632      C1633   1.406       .  A
C1632      H1637   1.084       .  S
C1633      C1634   1.423       .  A
C1634      N1635   1.433       .  S
N1635      H1639   1.044       .  S
N1635      H1640   1.045       .  S
N1638      H1641   1.045       .  S
N1638      H1642   1.046       .  S
C1643      C1644   1.403       .  A
C1643      C1648   1.412       .  A
C1643      H1650   1.084       .  S
C1644      C1645   1.413       .  A
C1645      C1646   1.411       .  A
C1645      N1652   1.438       .  S
C1646      C1647   1.405       .  A
C1646      H1651   1.084       .  S
C1647      C1648   1.414       .  A
C1648      N1649   1.432       .  S
N1649      H1653   1.046       .  S
N1649      H1654   1.045       .  S
N1652      H1655   1.046       .  S
N1652      H1656   1.046       .  S
C1657      C1658   1.406       .  A
C1657      C1662   1.401       .  A
C1657      H1664   1.084       .  S
C1658      C1659   1.411       .  A
C1659      C1660   1.404       .  A
C1659      N1666   1.438       .  S
C1660      C1661   1.404       .  A
C1660      H1665   1.084       .  S
C1661      C1662   1.413       .  A
C1662      N1663   1.433       .  S
N1663      H1667   1.044       .  S
N1663      H1668   1.046       .  S
N1666      H1669   1.045       .  S
N1666      H1670   1.046       .  S
C1671      C1672   1.402       .  A
C1671      C1676   1.397       .  A
C1671      H1678   1.084       .  S
C1672      C1673   1.410       .  A
C1673      C1674   1.401       .  A
C1673      N1680   1.432       .  S
C1674      C1675   1.402       .  A
C1674      H1679   1.084       .  S
C1675      C1676   1.410       .  A
C1676      N1677   1.434       .  S
N1677      H1681   1.045       .  S
N1677      H1682   1.046       .  S
N1680      H1683   1.046       .  S
N1680      H1684   1.044       .  S
C1685      C1686   1.406       .  A
C1685      C1690   1.408       .  A
C1685      H1692   1.084       .  S
C1686      C1687   1.410       .  A
C1687      C1688   1.408       .  A
C1687      N1694   1.432       .  S
C1688      C1689   1.407       .  A
C1688      H1693   1.084       .  S
C1689      C1690   1.414       .  A
C1690      N1691   1.438       .  S
N1691      H1695   1.046       .  S
N1691      H1696   1.045       .  S
N1694      H1697   1.045       .  S
N1694      H1698   1.046       .  S
C1699      C1700   1.403       .  A
C1699      C1704   1.412       .  A
C1699      H1706   1.084       .  S
C1700      C1701   1.405       .  A
C1701      C1702   1.409       .  A
C1701      N1708   1.432       .  S
C1702      C1703   1.411       .  A
C1702      H1707   1.084       .  S
C1703      C1704   1.416       .  A
C1704      N1705   1.438       .  S
N1705      H1709   1.046       .  S
N1705      H1710   1.045       .  S
N1708      H1711   1.046       .  S
N1708      H1712   1.046       .  S
C1713      C1714   1.403       .  A
C1713      C1718   1.406       .  A
C1713      H1720   1.084       .  S
C1714      C1715   1.411       .  A
C1715      C1716   1.405       .  A
C1715      N1722   1.433       .  S
C1716      C1717   1.404       .  A
C1716      H1721   1.084       .  S
C1717      C1718   1.414       .  A
C1718      N1719   1.439       .  S
N1719      H1723   1.047       .  S
N1719      H1724   1.044       .  S
N1722      H1725   1.045       .  S
N1722      H1726   1.046       .  S
C1727      C1728   1.401   1_545  A
C1727      C1732   1.407       .  A
C1727      H1734   1.084       .  S
C1728      C1729   1.418       .  A
C1729      C1730   1.406   1_565  A
C1729      N1736   1.439       .  S
C1730      C1731   1.406       .  A
C1730      H1735   1.083       .  S
C1731      C1732   1.416       .  A
C1732      N1733   1.433       .  S
N1733      H1737   1.046       .  S
N1733      H1738   1.045       .  S
N1736      H1739   1.044       .  S
N1736      H1740   1.046       .  S
C1741      C1742   1.400       .  A
C1741      C1746   1.408       .  A
C1741      H1748   1.084       .  S
C1742      C1743   1.417       .  A
C1743      C1744   1.412       .  A
C1743      N1750   1.437       .  S
C1744      C1745   1.399       .  A
C1744      H1749   1.083       .  S
C1745      C1746   1.414       .  A
C1746      N1747   1.433       .  S
N1747      H1751   1.046       .  S
N1747      H1752   1.045       .  S
N1750      H1753   1.045       .  S
N1750      H1754   1.045       .  S
C1755      C1756   1.412       .  A
C1755      C1760   1.393       .  A
C1755      H1762   1.084       .  S
C1756      C1757   1.414       .  A
C1757      C1758   1.400       .  A
C1757      N1764   1.432       .  S
C1758      C1759   1.408       .  A
C1758      H1763   1.084       .  S
C1759      C1760   1.409       .  A
C1760      N1761   1.433       .  S
N1761      H1765   1.045       .  S
N1761      H1766   1.045       .  S
N1764      H1767   1.045       .  S
N1764      H1768   1.045       .  S
C1769      C1770   1.402       .  A
C1769      C1774   1.408       .  A
C1769      H1776   1.084       .  S
C1770      C1771   1.412       .  A
C1771      C1772   1.410       .  A
C1771      N1778   1.438       .  S
C1772      C1773   1.405       .  A
C1772      H1777   1.084       .  S
C1773      C1774   1.413       .  A
C1774      N1775   1.432       .  S
N1775      H1779   1.046       .  S
N1775      H1780   1.046       .  S
N1778      H1781   1.046       .  S
N1778      H1782   1.045       .  S
C1783      C1784   1.400       .  A
C1783      C1788   1.406       .  A
C1783      H1790   1.084       .  S
C1784      C1785   1.412       .  A
C1785      C1786   1.408       .  A
C1785      N1792   1.438       .  S
C1786      C1787   1.404       .  A
C1786      H1791   1.084       .  S
C1787      C1788   1.413       .  A
C1788      N1789   1.432       .  S
N1789      H1793   1.046       .  S
N1789      H1794   1.046       .  S
N1792      H1795   1.046       .  S
N1792      H1796   1.046       .  S
C1797      C1798   1.408       .  A
C1797      C1802   1.402       .  A
C1797      H1804   1.084       .  S
C1798      C1799   1.410       .  A
C1799      C1800   1.404       .  A
C1799      N1806   1.433       .  S
C1800      C1801   1.410       .  A
C1800      H1805   1.084       .  S
C1801      C1802   1.410       .  A
C1802      N1803   1.432       .  S
N1803      H1807   1.045       .  S
N1803      H1808   1.045       .  S
N1806      H1809   1.045       .  S
N1806      H1810   1.045       .  S
C1811      C1812   1.402       .  A
C1811      C1816   1.402       .  A
C1811      H1818   1.084       .  S
C1812      C1813   1.412       .  A
C1813      C1814   1.395       .  A
C1813      N1820   1.438       .  S
C1814      C1815   1.404       .  A
C1814      H1819   1.084       .  S
C1815      C1816   1.413       .  A
C1816      N1817   1.438       .  S
N1817      H1821   1.046       .  S
N1817      H1822   1.045       .  S
N1820      H1823   1.045       .  S
N1820      H1824   1.046       .  S
C1825      C1826   1.411       .  A
C1825      C1830   1.389       .  A
C1825      H1832   1.084       .  S
C1826      C1827   1.411       .  A
C1827      C1828   1.405       .  A
C1827      N1834   1.437       .  S
C1828      C1829   1.408       .  A
C1828      H1833   1.084       .  S
C1829      C1830   1.407       .  A
C1830      N1831   1.433       .  S
N1831      H1835   1.046       .  S
N1831      H1836   1.044       .  S
N1834      H1837   1.046       .  S
N1834      H1838   1.046       .  S
C1839      C1840   1.409       .  A
C1839      C1844   1.401       .  A
C1839      H1846   1.084       .  S
C1840      C1841   1.405       .  A
C1841      C1842   1.396       .  A
C1841      N1848   1.433       .  S
C1842      C1843   1.411       .  A
C1842      H1847   1.085       .  S
C1843      C1844   1.407       .  A
C1844      N1845   1.432       .  S
N1845      H1849   1.045       .  S
N1845      H1850   1.046       .  S
N1848      H1851   1.046       .  S
N1848      H1852   1.045       .  S
C1853      C1854   1.402       .  A
C1853      C1858   1.409       .  A
C1853      H1860   1.084       .  S
C1854      C1855   1.408   1_554  A
C1855      C1856   1.406       .  A
C1855      N1862   1.432       .  S
C1856      C1857   1.406   1_556  A
C1856      H1861   1.084       .  S
C1857      C1858   1.416       .  A
C1858      N1859   1.432       .  S
N1859      H1863   1.046       .  S
N1859      H1864   1.045       .  S
N1862      H1865   1.045       .  S
N1862      H1866   1.046       .  S
C1867      C1868   1.403       .  A
C1867      C1872   1.402       .  A
C1867      H1874   1.084       .  S
C1868      C1869   1.417       .  A
C1869      C1870   1.406       .  A
C1869      N1876   1.439       .  S
C1870      C1871   1.404       .  A
C1870      H1875   1.084       .  S
C1871      C1872   1.423       .  A
C1872      N1873   1.434       .  S
N1873      H1877   1.042       .  S
N1873      H1878   1.046       .  S
N1876      H1879   1.045       .  S
N1876      H1880   1.045       .  S
C1881      C1882   1.402       .  A
C1881      C1886   1.410       .  A
C1881      H1888   1.084       .  S
C1882      C1883   1.412   1_556  A
C1883      C1884   1.411       .  A
C1883      N1890   1.438       .  S
C1884      C1885   1.405   1_554  A
C1884      H1889   1.084       .  S
C1885      C1886   1.414       .  A
C1886      N1887   1.432       .  S
N1887      H1891   1.046       .  S
N1887      H1892   1.046       .  S
N1890      H1893   1.046       .  S
N1890      H1894   1.046       .  S
C1895      C1896   1.401       .  A
C1895      C1900   1.404       .  A
C1895      H1902   1.084       .  S
C1896      C1897   1.412       .  A
C1897      C1898   1.405       .  A
C1897      N1904   1.433       .  S
C1898      C1899   1.403       .  A
C1898      H1903   1.084       .  S
C1899      C1900   1.413       .  A
C1900      N1901   1.433       .  S
N1901      H1905   1.046       .  S
N1901      H1906   1.046       .  S
N1904      H1907   1.046       .  S
N1904      H1908   1.045       .  S
C1909      C1910   1.407       .  A
C1909      C1914   1.407       .  A
C1909      H1916   1.084       .  S
C1910      C1911   1.423       .  A
C1911      C1912   1.406       .  A
C1911      N1918   1.433       .  S
C1912      C1913   1.401       .  A
C1912      H1917   1.084       .  S
C1913      C1914   1.408       .  A
C1914      N1915   1.432       .  S
N1915      H1919   1.046       .  S
N1915      H1920   1.045       .  S
N1918      H1921   1.044       .  S
N1918      H1922   1.045       .  S
C1923      C1924   1.406       .  A
C1923      C1928   1.399       .  A
C1923      H1930   1.084       .  S
C1924      C1925   1.418       .  A
C1925      C1926   1.400       .  A
C1925      N1932   1.434       .  S
C1926      C1927   1.403       .  A
C1926      H1931   1.084       .  S
C1927      C1928   1.413       .  A
C1928      N1929   1.434       .  S
N1929      H1933   1.044       .  S
N1929      H1934   1.046       .  S
N1932      H1935   1.045       .  S
N1932      H1936   1.044       .  S
C1937      C1938   1.411       .  A
C1937      C1942   1.411   1_655  A
C1937      H1944   1.083       .  S
C1938      C1939   1.416       .  A
C1939      C1940   1.408   1_545  A
C1939      N1946   1.432   1_545  S
C1940      C1941   1.402   1_655  A
C1940      H1945   1.084       .  S
C1941      C1942   1.409   1_565  A
C1942      N1943   1.438       .  S
N1943      H1947   1.045       .  S
N1943      H1948   1.046   1_545  S
N1946      H1949   1.045   1_565  S
N1946      H1950   1.046       .  S
C1951      C1952   1.405   1_455  A
C1951      C1956   1.400       .  A
C1951      H1958   1.084       .  S
C1952      C1953   1.411       .  A
C1953      C1954   1.396   1_655  A
C1953      N1960   1.433       .  S
C1954      C1955   1.402       .  A
C1954      H1959   1.085       .  S
C1955      C1956   1.406       .  A
C1956      N1957   1.433       .  S
N1957      H1961   1.046       .  S
N1957      H1962   1.043       .  S
N1960      H1963   1.046       .  S
N1960      H1964   1.046       .  S
C1965      C1966   1.406       .  A
C1965      C1970   1.409       .  A
C1965      H1972   1.084       .  S
C1966      C1967   1.406       .  A
C1967      C1968   1.404       .  A
C1967      N1974   1.433       .  S
C1968      C1969   1.408       .  A
C1968      H1973   1.084       .  S
C1969      C1970   1.412       .  A
C1970      N1971   1.437       .  S
N1971      H1975   1.046       .  S
N1971      H1976   1.045       .  S
N1974      H1977   1.046       .  S
N1974      H1978   1.045       .  S
C1979      C1980   1.405       .  A
C1979      C1984   1.393       .  A
C1979      H1986   1.084       .  S
C1980      C1981   1.414       .  A
C1981      C1982   1.402       .  A
C1981      N1988   1.438       .  S
C1982      C1983   1.402       .  A
C1982      H1987   1.084       .  S
C1983      C1984   1.410       .  A
C1984      N1985   1.434       .  S
N1985      H1989   1.043       .  S
N1985      H1990   1.046       .  S
N1988      H1991   1.045       .  S
N1988      H1992   1.045       .  S
C1993      C1994   1.400       .  A
C1993      C1998   1.408       .  A
C1993      H2000   1.084       .  S
C1994      C1995   1.416       .  A
C1995      C1996   1.409       .  A
C1995      N2002   1.438       .  S
C1996      C1997   1.398       .  A
C1996      H2001   1.084       .  S
C1997      C1998   1.414       .  A
C1998      N1999   1.433       .  S
N1999      H2003   1.046       .  S
N1999      H2004   1.045       .  S
N2002      H2005   1.046       .  S
N2002      H2006   1.045       .  S
C2007      C2008   1.407   1_556  A
C2007      C2012   1.405   1_545  A
C2007      H2014   1.084       .  S
C2008      C2009   1.419       .  A
C2009      C2010   1.408   1_545  A
C2009      N2016   1.438       .  S
C2010      C2011   1.399       .  A
C2010      H2015   1.084       .  S
C2011      C2012   1.407   1_554  A
C2012      N2013   1.432       .  S
N2013      H2017   1.046       .  S
N2013      H2018   1.045       .  S
N2016      H2019   1.045       .  S
N2016      H2020   1.046       .  S
C2021      C2022   1.404       .  A
C2021      C2026   1.410       .  A
C2021      H2028   1.084       .  S
C2022      C2023   1.421   1_556  A
C2023      C2024   1.405       .  A
C2023      N2030   1.440       .  S
C2024      C2025   1.403   1_554  A
C2024      H2029   1.084       .  S
C2025      C2026   1.411       .  A
C2026      N2027   1.432       .  S
N2027      H2031   1.046       .  S
N2027      H2032   1.046       .  S
N2030      H2033   1.043       .  S
N2030      H2034   1.045       .  S
C2035      C2036   1.404       .  A
C2035      C2040   1.399       .  A
C2035      H2042   1.084       .  S
C2036      C2037   1.414       .  A
C2037      C2038   1.398       .  A
C2037      N2044   1.434       .  S
C2038      C2039   1.404       .  A
C2038      H2043   1.084       .  S
C2039      C2040   1.416       .  A
C2040      N2041   1.434       .  S
N2041      H2045   1.044       .  S
N2041      H2046   1.046       .  S
N2044      H2047   1.046       .  S
N2044      H2048   1.044       .  S
