geometry optimzed in LAMMPS
_audit_creation_date              2020-12-01 
_audit_creation_method            'lammps2cif' 
_symmetry_space_group_name_H-M    'P1' 
_symmetry_Int_Tables_number       1 
_symmetry_cell_setting            triclinic 
loop_ 
_symmetry_equiv_pos_as_xyz 
  x,y,z 
_cell_length_a                    70.56472532 
_cell_length_b                    36.343350391326496 
_cell_length_c                    72.94232401501856 
_cell_angle_alpha                 90.00040326071199 
_cell_angle_beta                  89.92853308678943 
_cell_angle_gamma                 90.00487081162437 
loop_ 
_atom_site_label 
_atom_site_type_symbol 
_atom_site_fract_x 
_atom_site_fract_y 
_atom_site_fract_z 
_atom_site_charge 
Zn1        Zn  0.61408123  0.26770729  0.88933817     1.49700
Zn2        Zn  0.64084501  0.33780200  0.88818990     1.49400
Zn3        Zn  0.64729894  0.27267282  0.85927064     1.49100
Zn4        Zn  0.61055016  0.32489365  0.85593827     1.49500
O5          O  0.62817876  0.30076975  0.87309655    -1.81900
O6          O  0.61794789  0.28018561  0.91604493    -0.72500
O7          O  0.66889657  0.33788441  0.88347025    -0.72300
O8          O  0.64647323  0.21869321  0.86604175    -0.71900
O9          O  0.63657790  0.32954236  0.91532039    -0.72500
O10         O  0.62221234  0.21537855  0.88553239    -0.72100
O11         O  0.67379515  0.29320249  0.86312987    -0.72700
O12         O  0.61619175  0.31011446  0.82971105    -0.72100
O13         O  0.63194266  0.38848061  0.88152079    -0.72900
O14         O  0.64166813  0.27434372  0.83216395    -0.72300
O15         O  0.61230345  0.38049405  0.85795837    -0.72700
O16         O  0.58347589  0.30939006  0.86099192    -0.72600
O17         O  0.58617416  0.26947909  0.88399874    -0.72400
C18         C  0.62722113  0.30539601  0.92413920     0.79400
C19         C  0.67984847  0.31939174  0.87314182     0.79900
C20         C  0.63519015  0.20022853  0.87609084     0.78800
C21         C  0.62888493  0.28974451  0.82257915     0.79200
C22         C  0.62125061  0.40125445  0.86903707     0.80300
C23         C  0.57620958  0.28690530  0.87238262     0.79400
Zn24       Zn  0.61408437  0.76711506  0.88978498     1.49700
Zn25       Zn  0.64728811  0.77311072  0.85958185     1.49400
Zn26       Zn  0.61080411  0.82622038  0.85707710     1.49100
Zn27       Zn  0.64121530  0.83644446  0.88952442     1.49500
O28         O  0.62830988  0.80069145  0.87388755    -1.81900
O29         O  0.62150659  0.71477513  0.88465364    -0.72500
O30         O  0.64176441  0.77684242  0.83250469    -0.72300
O31         O  0.58359062  0.81123973  0.86213769    -0.71900
O32         O  0.64580687  0.71862866  0.86520856    -0.72500
O33         O  0.58608314  0.77051875  0.88481993    -0.72100
O34         O  0.61628641  0.81271531  0.83055995    -0.72700
O35         O  0.63259565  0.88757070  0.88370820    -0.72100
O36         O  0.67396019  0.79278176  0.86376096    -0.72900
O37         O  0.61305265  0.88170586  0.85991391    -0.72300
O38         O  0.66915551  0.83654760  0.88460755    -0.72700
O39         O  0.63715475  0.82677821  0.91656024    -0.72600
O40         O  0.61845451  0.77752606  0.91675394    -0.72400
C41         C  0.63422656  0.69984259  0.87479193     0.79400
C42         C  0.62899326  0.79277995  0.82312873     0.79900
C43         C  0.57618314  0.78868115  0.87342043     0.78800
C44         C  0.62209231  0.90145895  0.87138352     0.79200
C45         C  0.68005753  0.81851682  0.87404694     0.80300
C46         C  0.62784413  0.80222474  0.92513546     0.79400
Zn47       Zn  0.60860392  0.17921653  0.61053679     1.49700
Zn48       Zn  0.61199665  0.24479348  0.63955852     1.49400
Zn49       Zn  0.63927684  0.17592239  0.64303810     1.49100
Zn50       Zn  0.64484321  0.23299443  0.60963749     1.49500
O51         O  0.62622936  0.20820182  0.62560196    -1.81900
O52         O  0.58143107  0.19487632  0.61479875    -0.72500
O53         O  0.61647533  0.24032215  0.66672461    -0.72300
O54         O  0.63104037  0.12330980  0.63977465    -0.71900
O55         O  0.58406107  0.24076216  0.63485701    -0.72500
O56         O  0.61120559  0.12500793  0.61604719    -0.72100
O57         O  0.63547422  0.19181528  0.66947824    -0.72700
O58         O  0.67144642  0.21418063  0.61456934    -0.72100
O59         O  0.61976022  0.29566635  0.63233978    -0.72900
O60         O  0.66719852  0.17532616  0.63782971    -0.72300
O61         O  0.64379319  0.28851935  0.61284523    -0.72700
O62         O  0.63921480  0.22273765  0.58293444    -0.72600
O63         O  0.61403059  0.18589052  0.58353316    -0.72400
C64         C  0.57411096  0.22001428  0.62467427     0.79400
C65         C  0.62611268  0.21825029  0.67649603     0.79900
C66         C  0.62055403  0.10730243  0.62806321     0.78800
C67         C  0.67781829  0.19099443  0.62611188     0.79200
C68         C  0.63254732  0.30889498  0.62199789     0.80300
C69         C  0.62661729  0.20379340  0.57478597     0.79400
Zn70       Zn  0.61219534  0.74528472  0.64003142     1.49700
Zn71       Zn  0.63896108  0.67560854  0.64400053     1.49400
Zn72       Zn  0.60890811  0.68006166  0.61088237     1.49100
Zn73       Zn  0.64562550  0.73262212  0.61079799     1.49500
O74         O  0.62647081  0.70832305  0.62634921    -1.81900
O75         O  0.61678363  0.74159089  0.66722038    -0.72500
O76         O  0.63029081  0.62316669  0.64052804    -0.72300
O77         O  0.58167627  0.69608035  0.61486162    -0.71900
O78         O  0.63505424  0.69213310  0.67038138    -0.72500
O79         O  0.58418690  0.74122846  0.63534107    -0.72100
O80         O  0.61109509  0.62575392  0.61631644    -0.72700
O81         O  0.64074888  0.72219606  0.58399595    -0.72100
O82         O  0.66703075  0.67443676  0.63936367    -0.72900
O83         O  0.61498882  0.68684785  0.58398796    -0.72300
O84         O  0.67202629  0.71389451  0.61650923    -0.72700
O85         O  0.64473449  0.78807777  0.61381036    -0.72600
O86         O  0.62015357  0.79592174  0.63258554    -0.72400
C87         C  0.62612233  0.71936612  0.67717910     0.79400
C88         C  0.61996842  0.60761592  0.62851184     0.79900
C89         C  0.57427588  0.72083428  0.62493329     0.78800
C90         C  0.62808474  0.70397340  0.57554845     0.79200
C91         C  0.67803130  0.69045292  0.62809670     0.80300
C92         C  0.63331491  0.80876186  0.62256391     0.79400
Zn93       Zn  0.38741018  0.24412502  0.85564778     1.49700
Zn94       Zn  0.35984600  0.17559322  0.85231766     1.49400
Zn95       Zn  0.39035452  0.17912638  0.88494248     1.49100
Zn96       Zn  0.35422488  0.23318493  0.88540302     1.49500
O97         O  0.37290555  0.20801854  0.86966745    -1.81900
O98         O  0.38311422  0.23908251  0.82845886    -0.72500
O99         O  0.36805585  0.12310392  0.85572245    -0.72300
O100        O  0.41764078  0.19378732  0.88056801    -0.71900
O101        O  0.36388185  0.19087951  0.82586092    -0.72500
O102        O  0.41534515  0.23952112  0.86040268    -0.72100
O103        O  0.38752346  0.12492843  0.87972911    -0.72700
O104        O  0.35988767  0.22385274  0.91219840    -0.72100
O105        O  0.33189341  0.17496826  0.85743401    -0.72900
O106        O  0.38499148  0.18678497  0.91186537    -0.72300
O107        O  0.32758220  0.21408471  0.88057025    -0.72700
O108        O  0.35541238  0.28861627  0.88180841    -0.72600
O109        O  0.37979915  0.29523585  0.86265915    -0.72400
C110        C  0.37347108  0.21689515  0.81875048     0.79400
C111        C  0.37834805  0.10717957  0.86761053     0.79900
C112        C  0.42515647  0.21852697  0.87058773     0.78800
C113        C  0.37248440  0.20513869  0.92048027     0.79200
C114        C  0.32123863  0.19068981  0.86910362     0.80300
C115        C  0.36688116  0.30873912  0.87276539     0.79400
Zn116      Zn  0.38689259  0.74561533  0.85797865     1.49700
Zn117      Zn  0.39019237  0.67982026  0.88669822     1.49400
Zn118      Zn  0.35386246  0.73334725  0.88771269     1.49100
Zn119      Zn  0.35932119  0.67705308  0.85410609     1.49500
O120        O  0.37252419  0.70886146  0.87170069    -1.81900
O121        O  0.41489270  0.74152009  0.86257281    -0.72500
O122        O  0.38486965  0.68671506  0.91377756    -0.72300
O123        O  0.35443903  0.78864775  0.88417214    -0.71900
O124        O  0.41752067  0.69497819  0.88222737    -0.72500
O125        O  0.37883425  0.79627727  0.86513613    -0.72100
O126        O  0.35975604  0.72375532  0.91440843    -0.72700
O127        O  0.33130662  0.67627859  0.85936195    -0.72100
O128        O  0.38738188  0.62571127  0.88099107    -0.72900
O129        O  0.32730004  0.71418655  0.88302926    -0.72300
O130        O  0.36769942  0.62438040  0.85711216    -0.72700
O131        O  0.36313682  0.69371169  0.82772215    -0.72600
O132        O  0.38249266  0.74160301  0.83083220    -0.72400
C133        C  0.42488371  0.72025089  0.87244902     0.79400
C134        C  0.37238044  0.70486849  0.92254753     0.79900
C135        C  0.36568336  0.80920535  0.87513710     0.78800
C136        C  0.32079094  0.69148731  0.87132738     0.79200
C137        C  0.37815291  0.60820122  0.86880735     0.80300
C138        C  0.37270162  0.72010296  0.82089989     0.79400
Zn139      Zn  0.38501145  0.26613406  0.60586685     1.49700
Zn140      Zn  0.38902025  0.32380079  0.63903235     1.49400
Zn141      Zn  0.35854108  0.33642307  0.60706263     1.49100
Zn142      Zn  0.35216554  0.27191738  0.63627083     1.49500
O143        O  0.37120603  0.29952328  0.62214833    -1.81900
O144        O  0.41308055  0.26945698  0.61018069    -0.72500
O145        O  0.38673559  0.37936765  0.63742374    -0.72300
O146        O  0.36257476  0.32807769  0.57996430    -0.71900
O147        O  0.41603681  0.31009009  0.63284586    -0.72500
O148        O  0.38040783  0.27765453  0.57914960    -0.72100
O149        O  0.36752299  0.38701270  0.61351379    -0.72700
O150        O  0.32568143  0.29293247  0.63272650    -0.72100
O151        O  0.38440065  0.30763841  0.66528114    -0.72900
O152        O  0.33058929  0.33682328  0.61196081    -0.72300
O153        O  0.35840757  0.27316254  0.66324702    -0.72700
O154        O  0.35274754  0.21789037  0.62965247    -0.72600
O155        O  0.37728636  0.21377593  0.61050772    -0.72400
C156        C  0.42321009  0.28794775  0.62124569     0.79400
C157        C  0.37796515  0.39995666  0.62613851     0.79900
C158        C  0.37144435  0.30333998  0.57110087     0.78800
C159        C  0.31965657  0.31888704  0.62253755     0.79200
C160        C  0.37169568  0.28752287  0.67258812     0.80300
C161        C  0.36419068  0.19901870  0.61996857     0.79400
Zn162      Zn  0.38865990  0.82535584  0.64055652     1.49700
Zn163      Zn  0.35720245  0.83527140  0.60908156     1.49400
Zn164      Zn  0.38483167  0.76666565  0.60781745     1.49100
Zn165      Zn  0.35244448  0.77129322  0.63880796     1.49500
O166        O  0.37082165  0.79961686  0.62417859    -1.81900
O167        O  0.38612397  0.88074220  0.63788120    -0.72500
O168        O  0.36064535  0.82623750  0.58196877    -0.72300
O169        O  0.41291047  0.77042658  0.61208780    -0.71900
O170        O  0.36567027  0.88648131  0.61481770    -0.72500
O171        O  0.41580606  0.81104710  0.63476464    -0.72100
O172        O  0.37984824  0.77775109  0.58112250    -0.72700
O173        O  0.35391472  0.71701353  0.63268309    -0.72100
O174        O  0.32940244  0.83458428  0.61467703    -0.72900
O175        O  0.37760244  0.71411983  0.61250836    -0.72300
O176        O  0.32555836  0.79038389  0.63546960    -0.72700
O177        O  0.35867388  0.77500059  0.66572085    -0.72600
O178        O  0.38382955  0.81186230  0.66715799    -0.72400
C179        C  0.37657489  0.90042992  0.62678922     0.79400
C180        C  0.37002805  0.80224836  0.57309221     0.79900
C181        C  0.42302183  0.78878163  0.62322714     0.78800
C182        C  0.36515097  0.69871429  0.62250212     0.79200
C183        C  0.31895854  0.81608262  0.62546553     0.80300
C184        C  0.37144551  0.79154601  0.67483640     0.79400
Zn185      Zn  0.85695920  0.08142018  0.64545099     1.49700
Zn186      Zn  0.85190736  0.02493836  0.61185416     1.49400
Zn187      Zn  0.88804825  0.07919265  0.61314062     1.49100
Zn188      Zn  0.88466735  0.01313941  0.64177744     1.49500
O189        O  0.87036106  0.04973499  0.62795163    -1.81900
O190        O  0.82913403  0.08252951  0.63979851    -0.72500
O191        O  0.85804403  0.03469861  0.58520538    -0.72300
O192        O  0.88533877  0.13327280  0.61913616    -0.71900
O193        O  0.82532988  0.04438095  0.61620231    -0.72500
O194        O  0.86535843  0.13407116  0.64281514    -0.72100
O195        O  0.88265653  0.07299841  0.58608972    -0.72700
O196        O  0.91264717  0.01697895  0.63699562    -0.72100
O197        O  0.85241359  0.96953920  0.61558106    -0.72900
O198        O  0.91533962  0.06358234  0.61736825    -0.72300
O199        O  0.87654987  0.96238119  0.63490262    -0.72700
O200        O  0.88024661  0.01756960  0.66891812    -0.72600
O201        O  0.86035311  0.06468320  0.67179702    -0.72400
C202        C  0.81875908  0.06738983  0.62773506     0.79400
C203        C  0.87044466  0.05443095  0.57720538     0.79900
C204        C  0.87595449  0.15052041  0.63132534     0.78800
C205        C  0.92265811  0.03814789  0.62705753     0.79200
C206        C  0.86352448  0.94918711  0.62486985     0.80300
C207        C  0.87013285  0.03876531  0.67873387     0.79400
Zn208      Zn  0.85205703  0.52285896  0.64094428     1.49700
Zn209      Zn  0.85833316  0.58677124  0.61153756     1.49400
Zn210      Zn  0.88853548  0.57610002  0.64398214     1.49100
Zn211      Zn  0.88554323  0.51744978  0.61117494     1.49500
O212        O  0.87116211  0.55074955  0.62702191    -1.81900
O213        O  0.82551921  0.54316133  0.63701762    -0.72500
O214        O  0.86698447  0.63770874  0.61747408    -0.72300
O215        O  0.88295940  0.56167832  0.67029340    -0.71900
O216        O  0.83039970  0.58714413  0.61631920    -0.72500
O217        O  0.85763343  0.52541069  0.66800939    -0.72100
O218        O  0.88609666  0.63156540  0.64156579    -0.72700
O219        O  0.91351147  0.52107617  0.61622526    -0.72100
O220        O  0.86245303  0.57742766  0.58460007    -0.72900
O221        O  0.91586234  0.56197460  0.63883808    -0.72300
O222        O  0.88134964  0.52845408  0.58433214    -0.72700
O223        O  0.87786112  0.46499944  0.61568172    -0.72600
O224        O  0.85306500  0.46870266  0.63453131    -0.72400
C225        C  0.81947582  0.56909158  0.62683947     0.79400
C226        C  0.87724996  0.65143831  0.63001864     0.79900
C227        C  0.87032150  0.54128481  0.67751913     0.78800
C228        C  0.92335878  0.53957662  0.62753213     0.79200
C229        C  0.87189650  0.55311822  0.57601646     0.80300
C230        C  0.86468591  0.45001682  0.62494971     0.79400
Zn231      Zn  0.88772633  0.49629744  0.86098490     1.49700
Zn232      Zn  0.86055545  0.42772917  0.85660035     1.49400
Zn233      Zn  0.88985423  0.43110234  0.89031592     1.49100
Zn234      Zn  0.85357732  0.48475628  0.88972686     1.49500
O235        O  0.87287605  0.45997584  0.87452401    -1.81900
O236        O  0.88404139  0.49222512  0.83365714    -0.72500
O237        O  0.86921892  0.37547440  0.85969661    -0.72300
O238        O  0.91722145  0.44663130  0.88703898    -0.71900
O239        O  0.86481915  0.44421320  0.83036994    -0.72500
O240        O  0.91548155  0.49186104  0.86653015    -0.72100
O241        O  0.88761086  0.37694330  0.88450427    -0.72700
O242        O  0.85832058  0.47527750  0.91675093    -0.72100
O243        O  0.83252974  0.42601655  0.86106647    -0.72900
O244        O  0.88335014  0.43803131  0.91712683    -0.72300
O245        O  0.82718764  0.46524983  0.88395227    -0.72700
O246        O  0.85472407  0.54025112  0.88619404    -0.72600
O247        O  0.87985357  0.54715837  0.86798836    -0.72400
C248        C  0.87445204  0.47054356  0.82362529     0.79400
C249        C  0.87913732  0.35940150  0.87183124     0.79900
C250        C  0.92499093  0.47131593  0.87719718     0.78800
C251        C  0.87057436  0.45635058  0.92540265     0.79200
C252        C  0.82138731  0.44158909  0.87234585     0.80300
C253        C  0.86651627  0.56050162  0.87761603     0.79400
Zn254      Zn  0.88967646  0.93206252  0.89146231     1.49700
Zn255      Zn  0.85348712  0.98605281  0.89143591     1.49400
Zn256      Zn  0.88690132  0.99658000  0.86184349     1.49100
Zn257      Zn  0.85938772  0.92809967  0.85855735     1.49500
O258        O  0.87232047  0.96067704  0.87593062    -1.81900
O259        O  0.88387626  0.93982785  0.91836983    -0.72500
O260        O  0.85432660  0.04126615  0.88723590    -0.72300
O261        O  0.91478940  0.99250366  0.86693604    -0.71900
O262        O  0.85898060  0.97744630  0.91836516    -0.72500
O263        O  0.91702724  0.94715673  0.88733086    -0.72100
O264        O  0.87887251  0.04766118  0.86826005    -0.72700
O265        O  0.86335191  0.94346546  0.83208988    -0.72100
O266        O  0.82692243  0.96679854  0.88653404    -0.72900
O267        O  0.88285773  0.99122940  0.83465237    -0.72300
O268        O  0.83141322  0.92749854  0.86351511    -0.72700
O269        O  0.86775849  0.87566994  0.86202233    -0.72600
O270        O  0.88708852  0.87771142  0.88613965    -0.72400
C271        C  0.87137473  0.95852641  0.92682892     0.79400
C272        C  0.86569908  0.06124655  0.87801403     0.79900
C273        C  0.92457201  0.97181866  0.87730410     0.78800
C274        C  0.87304062  0.96931827  0.82496276     0.79200
C275        C  0.82066301  0.94338251  0.87504473     0.80300
C276        C  0.87807170  0.85984584  0.87393597     0.79400
Zn277      Zn  0.11439998  0.01529137  0.88971192     1.49700
Zn278      Zn  0.14127836  0.08494533  0.88905328     1.49400
Zn279      Zn  0.14701684  0.02179539  0.85903230     1.49100
Zn280      Zn  0.11028644  0.07444288  0.85715387     1.49500
O281        O  0.12820199  0.04909705  0.87362270    -1.81900
O282        O  0.11896107  0.02601031  0.91655463    -0.72500
O283        O  0.16914958  0.08563445  0.88366340    -0.72300
O284        O  0.14652526  0.96753041  0.86533863    -0.71900
O285        O  0.13769582  0.07518717  0.91611079    -0.72500
O286        O  0.12237109  0.96322337  0.88492596    -0.72100
O287        O  0.17356903  0.04258370  0.86237848    -0.72700
O288        O  0.11509694  0.06043599  0.83056290    -0.72100
O289        O  0.13226937  0.13588425  0.88349655    -0.72900
O290        O  0.14057747  0.02444816  0.83211689    -0.72300
O291        O  0.11250631  0.12998556  0.85987517    -0.72700
O292        O  0.08321272  0.05964509  0.86296526    -0.72600
O293        O  0.08633530  0.01812837  0.88521118    -0.72400
C294        C  0.12846535  0.05069749  0.92480091     0.79400
C295        C  0.17983774  0.06811874  0.87268657     0.79900
C296        C  0.13533189  0.94857599  0.87526306     0.78800
C297        C  0.12756902  0.04018917  0.82295939     0.79200
C298        C  0.12157612  0.14974727  0.87132250     0.80300
C299        C  0.07612351  0.03675536  0.87427146     0.79400
Zn300      Zn  0.14086626  0.58109995  0.85671260     1.49700
Zn301      Zn  0.11351402  0.51246573  0.86084658     1.49400
Zn302      Zn  0.14738916  0.52361914  0.88967698     1.49100
Zn303      Zn  0.11120917  0.57778599  0.89002060     1.49500
O304        O  0.12829809  0.54872936  0.87442078    -1.81900
O305        O  0.13677141  0.56480334  0.83045357    -0.72500
O306        O  0.12147854  0.46148239  0.86757756    -0.72300
O307        O  0.17378790  0.54371981  0.88453100    -0.71900
O308        O  0.11729962  0.51708624  0.83359551    -0.72500
O309        O  0.16882148  0.58284421  0.86153220    -0.72100
O310        O  0.14660075  0.46816645  0.88574049    -0.72700
O311        O  0.11725745  0.57023652  0.91678834    -0.72100
O312        O  0.08570278  0.51686159  0.86628187    -0.72900
O313        O  0.14206384  0.53238111  0.91660801    -0.72300
O314        O  0.08386020  0.56276172  0.88640708    -0.72700
O315        O  0.11368920  0.63205102  0.88450571    -0.72600
O316        O  0.13224052  0.63342956  0.85978321    -0.72400
C317        C  0.12701198  0.53873901  0.82364106     0.79400
C318        C  0.13488122  0.44800892  0.87704368     0.79900
C319        C  0.17975662  0.56747174  0.87304276     0.78800
C320        C  0.12976062  0.55144065  0.92514171     0.79200
C321        C  0.07612966  0.53787813  0.87668884     0.80300
C322        C  0.12228791  0.64957679  0.87189011     0.79400
Zn323      Zn  0.11234575  0.49510866  0.64080455     1.49700
Zn324      Zn  0.14484348  0.48444687  0.61036914     1.49400
Zn325      Zn  0.14069093  0.42769243  0.64383690     1.49100
Zn326      Zn  0.10903172  0.42942537  0.61204728     1.49500
O327        O  0.12675293  0.45911492  0.62666367    -1.81900
O328        O  0.12009482  0.54615222  0.63399697    -0.72500
O329        O  0.17161243  0.46507587  0.61394628    -0.72300
O330        O  0.13745117  0.44386089  0.67028472    -0.71900
O331        O  0.14417916  0.53969001  0.61448204    -0.72500
O332        O  0.11704536  0.49024726  0.66786893    -0.72100
O333        O  0.16845355  0.42722476  0.63774675    -0.72700
O334        O  0.11250551  0.37536748  0.61762085    -0.72100
O335        O  0.13807117  0.47559388  0.58381642    -0.72900
O336        O  0.13269419  0.37492101  0.64109840    -0.72300
O337        O  0.11370411  0.43672800  0.58492750    -0.72700
O338        O  0.08165187  0.44381251  0.61691485    -0.72600
O339        O  0.08433415  0.49068122  0.63636910    -0.72400
C340        C  0.13300168  0.55970858  0.62390313     0.79400
C341        C  0.17852062  0.44228287  0.62539251     0.79900
C342        C  0.12746363  0.46923786  0.67745942     0.78800
C343        C  0.12218811  0.35828883  0.62962663     0.79200
C344        C  0.12557923  0.45594615  0.57593175     0.80300
C345        C  0.07430956  0.46916185  0.62665879     0.79400
Zn346      Zn  0.14531735  0.98569983  0.64042321     1.49700
Zn347      Zn  0.10870056  0.93290744  0.64321919     1.49400
Zn348      Zn  0.11195650  0.99179111  0.61048387     1.49100
Zn349      Zn  0.13910044  0.92238838  0.61070709     1.49500
O350        O  0.12621926  0.95823862  0.62631590    -1.81900
O351        O  0.13952283  0.98312134  0.66749165    -0.72500
O352        O  0.08148082  0.94789660  0.63827335    -0.72300
O353        O  0.12009461  0.04400095  0.61483562    -0.71900
O354        O  0.11427416  0.94663598  0.66967020    -0.72500
O355        O  0.14456013  0.03984976  0.63401721    -0.72100
O356        O  0.08399839  0.98916233  0.61584260    -0.72700
O357        O  0.13489682  0.93179491  0.58376476    -0.72100
O358        O  0.11073704  0.87744121  0.64033200    -0.72900
O359        O  0.11573421  0.98036442  0.58357881    -0.72300
O360        O  0.13018596  0.87153045  0.61642406    -0.72700
O361        O  0.16707485  0.92167552  0.61554577    -0.72600
O362        O  0.17183734  0.96506216  0.63657065    -0.72400
C363        C  0.12683593  0.96707706  0.67696747     0.79400
C364        C  0.07408492  0.97074413  0.62715157     0.79900
C365        C  0.13321463  0.05872323  0.62424757     0.78800
C366        C  0.12520408  0.95575210  0.57521378     0.79200
C367        C  0.11962568  0.85769621  0.62873259     0.80300
C368        C  0.17794180  0.93936167  0.62626217     0.79400
Zn369      Zn  0.36007035  0.17183902  0.10656962     1.49700
Zn370      Zn  0.38722392  0.24141399  0.10630982     1.49400
Zn371      Zn  0.35373847  0.23550266  0.13611470     1.49100
Zn372      Zn  0.39032005  0.18273208  0.13911608     1.49500
O373        O  0.37288586  0.20787765  0.12211846    -1.81900
O374        O  0.36412087  0.18169477  0.07957066    -0.72500
O375        O  0.37936033  0.29366740  0.11092751    -0.72300
O376        O  0.32727431  0.21477329  0.13235331    -0.71900
O377        O  0.38321227  0.23041237  0.07940989    -0.72500
O378        O  0.33208242  0.17067322  0.11169775    -0.72100
O379        O  0.35468295  0.28975960  0.12991744    -0.72700
O380        O  0.38448994  0.19631934  0.16552739    -0.72100
O381        O  0.41519405  0.23861429  0.11157098    -0.72900
O382        O  0.35925425  0.23274265  0.16315947    -0.72300
O383        O  0.41752552  0.19799249  0.13430487    -0.72700
O384        O  0.38838850  0.12724720  0.13630453    -0.72600
O385        O  0.36915064  0.12098801  0.11230256    -0.72400
C386        C  0.37369304  0.20591723  0.07102828     0.79400
C387        C  0.36627724  0.30854450  0.12035102     0.79900
C388        C  0.32121146  0.18857459  0.12235760     0.78800
C389        C  0.37181438  0.21666155  0.17272701     0.79200
C390        C  0.42501049  0.22055295  0.12307615     0.80300
C391        C  0.37961981  0.10732447  0.12471603     0.79400
Zn392      Zn  0.38734766  0.74468799  0.13761979     1.49700
Zn393      Zn  0.35988716  0.67637682  0.14183994     1.49400
Zn394      Zn  0.35375081  0.73333620  0.10850284     1.49100
Zn395      Zn  0.38984085  0.67898848  0.10862200     1.49500
O396        O  0.37265038  0.70831274  0.12403127    -1.81900
O397        O  0.38333597  0.74069591  0.16486389    -0.72500
O398        O  0.33193219  0.67533464  0.13698010    -0.72300
O399        O  0.35472818  0.78880598  0.11213436    -0.71900
O400        O  0.36383067  0.69308717  0.16809170    -0.72500
O401        O  0.37955584  0.79559015  0.13065508    -0.72100
O402        O  0.32722282  0.71423133  0.11382947    -0.72700
O403        O  0.38385570  0.68580991  0.08171101    -0.72100
O404        O  0.36844204  0.62385476  0.13904702    -0.72900
O405        O  0.35909267  0.72377326  0.08161881    -0.72300
O406        O  0.38740421  0.62488836  0.11460129    -0.72700
O407        O  0.41721057  0.69413334  0.11232805    -0.72600
O408        O  0.41516731  0.73999333  0.13245950    -0.72400
C409        C  0.37353481  0.71927972  0.17485779     0.79400
C410        C  0.32108456  0.69097323  0.12547929     0.79900
C411        C  0.36632477  0.80900170  0.12095214     0.78800
C412        C  0.37138590  0.70445786  0.07320966     0.79200
C413        C  0.37865911  0.60754760  0.12719285     0.80300
C414        C  0.42484727  0.71897620  0.12215061     0.79400
Zn415      Zn  0.38549128  0.26129976  0.35602153     1.49700
Zn416      Zn  0.35227021  0.27340093  0.38565473     1.49400
Zn417      Zn  0.38855632  0.32696521  0.38492888     1.49100
Zn418      Zn  0.35809104  0.32996695  0.35216524     1.49500
O419        O  0.37105619  0.29792388  0.36977578    -1.81900
O420        O  0.37711883  0.21059859  0.36279621    -0.72500
O421        O  0.35806006  0.28274301  0.41243877    -0.72300
O422        O  0.41577107  0.31102693  0.38115518    -0.71900
O423        O  0.35281831  0.21802842  0.38196871    -0.72500
O424        O  0.41335963  0.26450596  0.36144830    -0.72100
O425        O  0.38291548  0.32041639  0.41186776    -0.72700
O426        O  0.36648422  0.38250760  0.35526508    -0.72100
O427        O  0.32579992  0.29321633  0.38091825    -0.72900
O428        O  0.38605576  0.38109223  0.37921050    -0.72300
O429        O  0.33011856  0.33118693  0.35731837    -0.72700
O430        O  0.36206461  0.31369144  0.32579309    -0.72600
O431        O  0.38166197  0.26613743  0.32876335    -0.72400
C432        C  0.36401651  0.19755169  0.37281990     0.79400
C433        C  0.37052601  0.30199658  0.42060232     0.79900
C434        C  0.42319079  0.28539609  0.37167308     0.78800
C435        C  0.37687218  0.39864131  0.36701625     0.79200
C436        C  0.31948321  0.31621789  0.36925312     0.80300
C437        C  0.37184871  0.28771944  0.31888094     0.79400
Zn438      Zn  0.35865354  0.83088879  0.35449498     1.49700
Zn439      Zn  0.38853423  0.82696201  0.38765091     1.49400
Zn440      Zn  0.35249497  0.77261973  0.38710466     1.49100
Zn441      Zn  0.38628738  0.76251231  0.35800772     1.49500
O442        O  0.37145462  0.79825719  0.37190665    -1.81900
O443        O  0.36727843  0.88315864  0.35783759    -0.72500
O444        O  0.38239485  0.81908719  0.41439934    -0.72300
O445        O  0.32603400  0.79245802  0.38233039    -0.71900
O446        O  0.38601052  0.88125252  0.38238901    -0.72500
O447        O  0.33069681  0.83241835  0.35963016    -0.72100
O448        O  0.35775309  0.78084613  0.41403460    -0.72700
O449        O  0.37843495  0.71123365  0.36442315    -0.72100
O450        O  0.41591487  0.81212657  0.38392190    -0.72900
O451        O  0.35339364  0.71742611  0.38279839    -0.72300
O452        O  0.41410855  0.76705314  0.36333758    -0.72700
O453        O  0.38238556  0.76785003  0.33081175    -0.72600
O454        O  0.36260147  0.81516762  0.32807101    -0.72400
C455        C  0.37731075  0.89903428  0.36995355     0.79400
C456        C  0.36990817  0.80002639  0.42265775     0.79900
C457        C  0.31990079  0.81654741  0.37112888     0.78800
C458        C  0.36506828  0.69752004  0.37389239     0.79200
C459        C  0.42366819  0.78769424  0.37392123     0.80300
C460        C  0.37248562  0.78947684  0.32104143     0.79400
Zn461      Zn  0.61501580  0.26531367  0.10960986     1.49700
Zn462      Zn  0.64133267  0.33593412  0.11041554     1.49400
Zn463      Zn  0.61087602  0.32336993  0.14253213     1.49100
Zn464      Zn  0.64797767  0.27177882  0.13985289     1.49500
O465        O  0.62879507  0.29905630  0.12570841    -1.81900
O466        O  0.61953548  0.27646659  0.08282062    -0.72500
O467        O  0.63219318  0.38664469  0.11662712    -0.72300
O468        O  0.58385895  0.30784756  0.13715220    -0.71900
O469        O  0.63746425  0.32679240  0.08335856    -0.72500
O470        O  0.58693255  0.26775046  0.11426567    -0.72100
O471        O  0.61258200  0.37889475  0.14026518    -0.72700
O472        O  0.64232770  0.27497098  0.16695209    -0.72100
O473        O  0.66925550  0.33686803  0.11529770    -0.72900
O474        O  0.61634742  0.30951420  0.16889583    -0.72300
O475        O  0.67443742  0.29255104  0.13575929    -0.72700
O476        O  0.64713696  0.21732636  0.13382444    -0.72600
O477        O  0.62293523  0.21320196  0.11434430    -0.72400
C478        C  0.62859098  0.30188609  0.07463142     0.79400
C479        C  0.62147462  0.39953728  0.12907726     0.79900
C480        C  0.57675327  0.28546820  0.12562769     0.78800
C481        C  0.62929351  0.29022528  0.17631224     0.79200
C482        C  0.68030735  0.31883155  0.12568136     0.80300
C483        C  0.63580824  0.19842967  0.12403599     0.79400
Zn484      Zn  0.64662506  0.77217923  0.14160762     1.49700
Zn485      Zn  0.60984862  0.82471945  0.14357806     1.49400
Zn486      Zn  0.64074539  0.83533710  0.11155026     1.49100
Zn487      Zn  0.61406949  0.76542976  0.11107238     1.49500
O488        O  0.62779037  0.79942778  0.12706567    -1.81900
O489        O  0.64073772  0.77628700  0.16855988    -0.72500
O490        O  0.61194974  0.88021756  0.14084198    -0.72300
O491        O  0.66866846  0.83565954  0.11665194    -0.71900
O492        O  0.61485945  0.81118510  0.17013682    -0.72500
O493        O  0.67325968  0.79196003  0.13757362    -0.72100
O494        O  0.63184917  0.88633237  0.11729821    -0.72700
O495        O  0.61884764  0.77555185  0.08417879    -0.72100
O496        O  0.58279179  0.80969927  0.13793226    -0.72900
O497        O  0.63691914  0.82566995  0.08449627    -0.72300
O498        O  0.58604421  0.76888277  0.11537804    -0.72700
O499        O  0.62141020  0.71323624  0.11651070    -0.72600
O500        O  0.64538577  0.71755901  0.13623012    -0.72400
C501        C  0.62764773  0.79176294  0.17773713     0.79400
C502        C  0.62108782  0.90008386  0.12947745     0.79900
C503        C  0.67945977  0.81765330  0.12731113     0.78800
C504        C  0.62799449  0.80069282  0.07586362     0.79200
C505        C  0.57577943  0.78713068  0.12644101     0.80300
C506        C  0.63400132  0.69853960  0.12657300     0.79400
Zn507      Zn  0.63908776  0.17718858  0.35529775     1.49700
Zn508      Zn  0.61175133  0.24557068  0.36022268     1.49400
Zn509      Zn  0.60947448  0.17911498  0.38876341     1.49100
Zn510      Zn  0.64556315  0.23303740  0.38898372     1.49500
O511        O  0.62651753  0.20872689  0.37340254    -1.81900
O512        O  0.63498508  0.19469670  0.32919357    -0.72500
O513        O  0.58393321  0.24071956  0.36559539    -0.72300
O514        O  0.61237135  0.12518288  0.38291114    -0.71900
O515        O  0.61553963  0.24227237  0.33289489    -0.72500
O516        O  0.63062131  0.12460038  0.35795657    -0.72100
O517        O  0.58206214  0.19358903  0.38500928    -0.72700
O518        O  0.64010927  0.22374306  0.41586352    -0.72100
O519        O  0.61988420  0.29621942  0.36740457    -0.72900
O520        O  0.61526752  0.18600645  0.41566066    -0.72300
O521        O  0.64512636  0.28843321  0.38530888    -0.72700
O522        O  0.67185927  0.21294579  0.38375024    -0.72600
O523        O  0.66706754  0.17547672  0.36004173    -0.72400
C524        C  0.62526741  0.22113597  0.32268204     0.79400
C525        C  0.57433322  0.21892027  0.37557993     0.79900
C526        C  0.62091220  0.10806071  0.37012688     0.78800
C527        C  0.62773243  0.20453706  0.42421570     0.79200
C528        C  0.63348185  0.30908554  0.37682663     0.80300
C529        C  0.67791615  0.19010585  0.37186696     0.79400
Zn530      Zn  0.64560539  0.73408787  0.38961978     1.49700
Zn531      Zn  0.63944649  0.67666504  0.35656536     1.49400
Zn532      Zn  0.60956830  0.67968928  0.38981761     1.49100
Zn533      Zn  0.61192196  0.74495572  0.36060108     1.49500
O534        O  0.62668154  0.70882163  0.37425725    -1.81900
O535        O  0.67209972  0.71489742  0.38438429    -0.72500
O536        O  0.63140058  0.62405064  0.35998702    -0.72300
O537        O  0.61550771  0.68727475  0.41665134    -0.71900
O538        O  0.66744610  0.67618967  0.36115391    -0.72500
O539        O  0.64038511  0.72495398  0.41652017    -0.72100
O540        O  0.61244506  0.62545818  0.38442866    -0.72700
O541        O  0.58415022  0.74034240  0.36592331    -0.72100
O542        O  0.63504726  0.69235111  0.33023454    -0.72900
O543        O  0.58214280  0.69426144  0.38593716    -0.72300
O544        O  0.61566493  0.74017839  0.33337542    -0.72700
O545        O  0.61981447  0.79602174  0.36722329    -0.72600
O546        O  0.64465778  0.78939263  0.38574109    -0.72400
C547        C  0.67826391  0.69173298  0.37270919     0.79400
C548        C  0.62139947  0.60789599  0.37205877     0.79900
C549        C  0.62808203  0.70586303  0.42503235     0.78800
C550        C  0.57448900  0.71916685  0.37616513     0.79200
C551        C  0.62527605  0.71838932  0.32341323     0.80300
C552        C  0.63309854  0.80950050  0.37684175     0.79400
Zn553      Zn  0.88578259  0.01814751  0.39146144     1.49700
Zn554      Zn  0.88867327  0.07636936  0.35836921     1.49400
Zn555      Zn  0.85223836  0.02336235  0.36178703     1.49100
Zn556      Zn  0.85859359  0.08757711  0.39107596     1.49500
O557        O  0.87137357  0.05135619  0.37558134    -1.81900
O558        O  0.91368294  0.02055655  0.38576719    -0.72500
O559        O  0.88277074  0.06221894  0.33205956    -0.72300
O560        O  0.85316930  0.96932043  0.36827618    -0.71900
O561        O  0.91592400  0.06111696  0.36298372    -0.72500
O562        O  0.87775834  0.96583317  0.38732078    -0.72100
O563        O  0.85763586  0.02558035  0.33468300    -0.72700
O564        O  0.83057482  0.08782287  0.38642178    -0.72100
O565        O  0.88661193  0.13192190  0.36094259    -0.72900
O566        O  0.82578258  0.04366110  0.36580106    -0.72300
O567        O  0.86731256  0.13851501  0.38492232    -0.72700
O568        O  0.86291267  0.07845410  0.41806342    -0.72600
O569        O  0.88202746  0.02979503  0.41835819    -0.72400
C570        C  0.92344248  0.03844556  0.37412306     0.79400
C571        C  0.87016169  0.04156684  0.32499993     0.79900
C572        C  0.86466824  0.95076469  0.37801574     0.78800
C573        C  0.81968882  0.06960492  0.37594389     0.79200
C574        C  0.87774319  0.15202096  0.37240759     0.80300
C575        C  0.87253871  0.05445943  0.42667254     0.79400
Zn576      Zn  0.85219137  0.52385798  0.36060142     1.49700
Zn577      Zn  0.88863176  0.57709022  0.35758881     1.49400
Zn578      Zn  0.85843181  0.58717349  0.39031777     1.49100
Zn579      Zn  0.88578745  0.51794578  0.39021020     1.49500
O580        O  0.87130888  0.55151358  0.37458099    -1.81900
O581        O  0.85755197  0.52713258  0.33350936    -0.72500
O582        O  0.88661275  0.63251472  0.36068174    -0.72300
O583        O  0.83037182  0.58731050  0.38579613    -0.71900
O584        O  0.88270637  0.56381727  0.33116463    -0.72500
O585        O  0.82564679  0.54369889  0.36487925    -0.72100
O586        O  0.86709618  0.63825758  0.38455153    -0.72700
O587        O  0.88212112  0.52898924  0.41714916    -0.72100
O588        O  0.91590213  0.56185369  0.36208846    -0.72900
O589        O  0.86290348  0.57750050  0.41718989    -0.72300
O590        O  0.91367844  0.52065094  0.38457501    -0.72700
O591        O  0.87781634  0.46570593  0.38576038    -0.72600
O592        O  0.85330591  0.46959127  0.36663775    -0.72400
C593        C  0.87007565  0.54342734  0.32394705     0.79400
C594        C  0.87765255  0.65219073  0.37225980     0.79900
C595        C  0.81949588  0.56925472  0.37523761     0.78800
C596        C  0.87263309  0.55342537  0.42562123     0.79200
C597        C  0.92343600  0.53895125  0.37309459     0.80300
C598        C  0.86478956  0.45082424  0.37629755     0.79400
Zn599      Zn  0.88979855  0.43009659  0.11175668     1.49700
Zn600      Zn  0.88746697  0.49522023  0.14115995     1.49400
Zn601      Zn  0.85420245  0.48525907  0.11141328     1.49100
Zn602      Zn  0.85924315  0.42799013  0.14467336     1.49500
O603        O  0.87265463  0.45959936  0.12715627    -1.81900
O604        O  0.91725130  0.44459777  0.11575561    -0.72500
O605        O  0.88002774  0.54644366  0.13432749    -0.72300
O606        O  0.85973619  0.47600749  0.08456994    -0.71900
O607        O  0.91533519  0.49012624  0.13609372    -0.72500
O608        O  0.88418026  0.43733813  0.08473838    -0.72100
O609        O  0.85560134  0.54040477  0.11523381    -0.72700
O610        O  0.83133795  0.42803079  0.13941101    -0.72100
O611        O  0.88313766  0.49066451  0.16839443    -0.72900
O612        O  0.82744249  0.46706551  0.11619146    -0.72300
O613        O  0.86301356  0.44390891  0.17112293    -0.72700
O614        O  0.86721082  0.37526066  0.14156262    -0.72600
O615        O  0.88669033  0.37601125  0.11747682    -0.72400
C616        C  0.92496511  0.46918023  0.12569463     0.79400
C617        C  0.86710906  0.56021389  0.12434929     0.79900
C618        C  0.87192369  0.45642834  0.07618564     0.78800
C619        C  0.82086634  0.44399314  0.12769525     0.79200
C620        C  0.87294686  0.46949310  0.17816336     0.80300
C621        C  0.87743732  0.35879079  0.12977127     0.79400
Zn622      Zn  0.85954215  0.92561443  0.14556381     1.49700
Zn623      Zn  0.88623788  0.99541420  0.14295670     1.49400
Zn624      Zn  0.89001016  0.93220605  0.11278693     1.49100
Zn625      Zn  0.85318599  0.98437668  0.11310245     1.49500
O626        O  0.87218796  0.95937836  0.12850572    -1.81900
O627        O  0.86338088  0.93980026  0.17224504    -0.72500
O628        O  0.91426240  0.99208142  0.13834681    -0.72300
O629        O  0.88789982  0.87764504  0.11742939    -0.71900
O630        O  0.88181229  0.98922296  0.17003297    -0.72500
O631        O  0.86835522  0.87372905  0.14137673    -0.72100
O632        O  0.91715279  0.94793510  0.11738193    -0.72700
O633        O  0.85860459  0.97593801  0.08613003    -0.72100
O634        O  0.87804785  0.04644787  0.13653840    -0.72900
O635        O  0.88435685  0.94058579  0.08592200    -0.72300
O636        O  0.85386050  0.03961117  0.11722701    -0.72700
O637        O  0.82674651  0.96459603  0.11813681    -0.72600
O638        O  0.83155866  0.92436322  0.14068311    -0.72400
C639        C  0.87249043  0.96621135  0.17956430     0.79400
C640        C  0.92436184  0.97218130  0.12785941     0.79900
C641        C  0.87891089  0.85888998  0.12932603     0.78800
C642        C  0.87141616  0.95824375  0.07756312     0.79200
C643        C  0.86501246  0.05980497  0.12655920     0.80300
C644        C  0.82067169  0.94052588  0.12939607     0.79400
Zn645      Zn  0.14120950  0.08572609  0.11138471     1.49700
Zn646      Zn  0.11350739  0.01718242  0.11037035     1.49400
Zn647      Zn  0.14659656  0.02110061  0.14064749     1.49100
Zn648      Zn  0.11047217  0.07496633  0.14357087     1.49500
O649        O  0.12791326  0.04972108  0.12658588    -1.81900
O650        O  0.13755685  0.07668521  0.08424072    -0.72500
O651        O  0.12034633  0.96443342  0.11515172    -0.72300
O652        O  0.17343936  0.04032402  0.13691381    -0.71900
O653        O  0.11841774  0.02807235  0.08356705    -0.72500
O654        O  0.16909611  0.08534063  0.11666471    -0.72100
O655        O  0.14476994  0.96692569  0.13444965    -0.72700
O656        O  0.11567005  0.06039406  0.16994494    -0.72100
O657        O  0.08548784  0.02156137  0.11507036    -0.72900
O658        O  0.14090427  0.02393931  0.16768891    -0.72300
O659        O  0.08319520  0.06116452  0.13825864    -0.72700
O660        O  0.11314276  0.13032907  0.14131788    -0.72600
O661        O  0.13268228  0.13679057  0.11750579    -0.72400
C662        C  0.12818685  0.05257347  0.07543502     0.79400
C663        C  0.13300682  0.94880663  0.12478285     0.79900
C664        C  0.17978859  0.06654321  0.12707171     0.78800
C665        C  0.12821858  0.03988141  0.17719236     0.79200
C666        C  0.07567134  0.03949847  0.12664598     0.80300
C667        C  0.12225962  0.15034861  0.13001395     0.79400
Zn668      Zn  0.14098783  0.58582450  0.11146617     1.49700
Zn669      Zn  0.11459922  0.51538553  0.11063541     1.49400
Zn670      Zn  0.14734436  0.52203634  0.14108322     1.49100
Zn671      Zn  0.11032305  0.57361716  0.14353107     1.49500
O672        O  0.12828565  0.54920104  0.12677465    -1.81900
O673        O  0.13699936  0.57689990  0.08439147    -0.72500
O674        O  0.12252841  0.46327025  0.11546372    -0.72300
O675        O  0.17382436  0.54260677  0.13717877    -0.71900
O676        O  0.11915945  0.52646998  0.08384442    -0.72500
O677        O  0.16894595  0.58625995  0.11630101    -0.72100
O678        O  0.14668431  0.46780145  0.13497806    -0.72700
O679        O  0.11535582  0.55904361  0.16996371    -0.72100
O680        O  0.08651461  0.51812518  0.11506745    -0.72900
O681        O  0.14141846  0.52473115  0.16812082    -0.72300
O682        O  0.08328263  0.55878632  0.13769121    -0.72700
O683        O  0.11237532  0.62917572  0.14137094    -0.72600
O684        O  0.13203481  0.63658617  0.11773088    -0.72400
C685        C  0.12814799  0.55197498  0.07565617     0.79400
C686        C  0.13545043  0.44873516  0.12519140     0.79900
C687        C  0.17986525  0.56839141  0.12689133     0.78800
C688        C  0.12822910  0.53960552  0.17742325     0.79200
C689        C  0.07624969  0.53631129  0.12616552     0.80300
C690        C  0.12135307  0.64965865  0.13016354     0.79400
Zn691      Zn  0.14566815  0.48597010  0.36049658     1.49700
Zn692      Zn  0.13944459  0.42150407  0.38977365     1.49400
Zn693      Zn  0.11195080  0.49035687  0.39017262     1.49100
Zn694      Zn  0.10945053  0.43246212  0.35701843     1.49500
O695        O  0.12661160  0.45759695  0.37426542    -1.81900
O696        O  0.17226947  0.46581254  0.36449674    -0.72500
O697        O  0.13510070  0.43060682  0.41681019    -0.72300
O698        O  0.11947445  0.54286705  0.38593786    -0.71900
O699        O  0.16746742  0.42147768  0.38504346    -0.72500
O700        O  0.14435671  0.54001432  0.36715033    -0.72100
O701        O  0.11586222  0.47906854  0.41703499    -0.72700
O702        O  0.08209315  0.44650221  0.36186484    -0.72100
O703        O  0.13082196  0.37051036  0.38359288    -0.72900
O704        O  0.08406838  0.48682900  0.38475695    -0.72300
O705        O  0.11188562  0.37704731  0.35938037    -0.72700
O706        O  0.11512288  0.44721217  0.33074500    -0.72600
O707        O  0.14021045  0.48396889  0.33333221    -0.72400
C708        C  0.17837456  0.43980015  0.37460294     0.79400
C709        C  0.12540397  0.45458508  0.42538727     0.79900
C710        C  0.13258153  0.55827360  0.37676587     0.78800
C711        C  0.07441805  0.46866559  0.37316401     0.79200
C712        C  0.12061934  0.35698920  0.37092874     0.80300
C713        C  0.12766031  0.46803829  0.32366685     0.79400
Zn714      Zn  0.10982820  0.93252063  0.35636166     1.49700
Zn715      Zn  0.11214664  0.99075378  0.38939767     1.49400
Zn716      Zn  0.13953397  0.92168093  0.38938027     1.49100
Zn717      Zn  0.14625273  0.98565175  0.36010528     1.49500
O718        O  0.12690031  0.95768769  0.37370207    -1.81900
O719        O  0.08243149  0.94716121  0.36079532    -0.72500
O720        O  0.11555960  0.97926721  0.41633150    -0.72300
O721        O  0.13094609  0.87079089  0.38321707    -0.71900
O722        O  0.08429527  0.98758071  0.38365191    -0.72500
O723        O  0.11189552  0.87703955  0.35907729    -0.72100
O724        O  0.13465667  0.93059449  0.41626708    -0.72700
O725        O  0.17280048  0.96583891  0.36469181    -0.72100
O726        O  0.11996791  0.04315848  0.38515474    -0.72900
O727        O  0.16764940  0.92165946  0.38522514    -0.72300
O728        O  0.14485849  0.03978239  0.36639289    -0.72700
O729        O  0.14133544  0.98292116  0.33289523    -0.72600
O730        O  0.11608931  0.94660243  0.33011073    -0.72400
C731        C  0.07469754  0.96945418  0.37200047     0.79400
C732        C  0.12486202  0.95452249  0.42475328     0.79900
C733        C  0.12061584  0.85712479  0.37070195     0.78800
C734        C  0.17874572  0.93999792  0.37498513     0.79200
C735        C  0.13312303  0.05829254  0.37592420     0.80300
C736        C  0.12888244  0.96697606  0.32312416     0.79400
C737        C  0.12321691  0.74567284  0.37128271     0.19300
C738        C  0.10773927  0.72179013  0.37295097    -0.09900
C739        C  0.11074780  0.68390115  0.37460763    -0.10700
C740        C  0.12923658  0.66977053  0.37463793     0.20800
C741        C  0.14471024  0.69366713  0.37301742    -0.12700
C742        C  0.14170247  0.73154481  0.37136075    -0.11000
C743        C  0.13220503  0.63071521  0.37600596     0.01800
C744        C  0.13341985  0.59767265  0.37667996    -0.31000
C745        C  0.12029920  0.78474409  0.36995044     0.03200
C746        C  0.11933316  0.81783634  0.36964452    -0.32700
H747        H  0.09339787  0.73243664  0.37300113     0.14200
H748        H  0.09867468  0.66562408  0.37583127     0.14000
H749        H  0.15905452  0.68303553  0.37300285     0.13900
H750        H  0.15377963  0.74982307  0.37017339     0.12900
C751        C  0.12981505  0.16970377  0.37337298     0.19300
C752        C  0.14209612  0.19156400  0.36292123    -0.09900
C753        C  0.13882593  0.22938807  0.36135985    -0.10700
C754        C  0.12323357  0.24545260  0.37019196     0.20800
C755        C  0.11090255  0.22354904  0.38056048    -0.12700
C756        C  0.11417181  0.18574239  0.38212187    -0.11000
C757        C  0.12047926  0.28462149  0.36936471     0.01800
C758        C  0.11951606  0.31771787  0.36953575    -0.31000
C759        C  0.13288566  0.13069358  0.37477529     0.03200
C760        C  0.13405666  0.09766867  0.37563077    -0.32700
H761        H  0.15417715  0.17940433  0.35602571     0.14200
H762        H  0.14852044  0.24613877  0.35339988     0.14000
H763        H  0.09887592  0.23572542  0.38753816     0.13900
H764        H  0.10453100  0.16903041  0.39016342     0.12900
C765        C  0.12729190  0.49320399  0.26905197     0.19300
C766        C  0.11085634  0.48942677  0.25843512    -0.09900
C767        C  0.11085513  0.50040950  0.24002597    -0.10700
C768        C  0.12727525  0.51530849  0.23212190     0.20800
C769        C  0.14369727  0.51912132  0.24274770    -0.12700
C770        C  0.14369874  0.50814195  0.26114918    -0.11000
C771        C  0.12740527  0.52588009  0.21304091     0.01800
C772        C  0.12768228  0.53331845  0.19689647    -0.31000
C773        C  0.12727563  0.48238387  0.28809986     0.03200
C774        C  0.12741394  0.47469587  0.30421737    -0.32700
H775        H  0.09806293  0.47802529  0.26438083     0.14200
H776        H  0.09808271  0.49719903  0.23195278     0.14000
H777        H  0.15650070  0.53047908  0.23680025     0.13900
H778        H  0.15648134  0.51131354  0.26921138     0.12900
C779        C  0.12312148  0.76131974  0.13126753     0.19300
C780        C  0.10900389  0.78370580  0.12368363    -0.09900
C781        C  0.11191192  0.82165161  0.12213437    -0.10700
C782        C  0.12896772  0.83735161  0.12811054     0.20800
C783        C  0.14301730  0.81500929  0.13583640    -0.12700
C784        C  0.14010863  0.77706992  0.13738794    -0.11000
C785        C  0.13190623  0.87639683  0.12646555     0.01800
C786        C  0.13333411  0.90937570  0.12537007    -0.31000
C787        C  0.12064575  0.72203950  0.13196000     0.03200
C788        C  0.11994552  0.68890375  0.13167800    -0.32700
H789        H  0.09586263  0.77180160  0.11881584     0.14200
H790        H  0.10091859  0.83871106  0.11619641     0.14000
H791        H  0.15622498  0.82687062  0.14055984     0.13900
H792        H  0.15116870  0.75997487  0.14318359     0.12900
C793        C  0.13253774  0.33737678  0.12797301     0.19300
C794        C  0.11961645  0.32034209  0.11613184    -0.09900
C795        C  0.11610983  0.28261883  0.11760297    -0.10700
C796        C  0.12545972  0.26177892  0.13096291     0.20800
C797        C  0.13835099  0.27881033  0.14285623    -0.12700
C798        C  0.14185694  0.31658340  0.14138767    -0.11000
C799        C  0.12255252  0.22266551  0.13181299     0.01800
C800        C  0.12137666  0.18960566  0.13154419    -0.31000
C801        C  0.13564479  0.37638274  0.12668352     0.03200
C802        C  0.13667542  0.40941042  0.12574369    -0.32700
H803        H  0.11225603  0.33622444  0.10578233     0.14200
H804        H  0.10621810  0.26966639  0.10825557     0.14000
H805        H  0.14575864  0.26287466  0.15315284     0.13900
H806        H  0.15179618  0.32954368  0.15068332     0.12900
C807        C  0.12871694  0.99181916  0.26852046     0.19300
C808        C  0.14574617  0.99864816  0.25920336    -0.09900
C809        C  0.14546916  0.01010214  0.24087638    -0.10700
C810        C  0.12816280  0.01487824  0.23176192     0.20800
C811        C  0.11113712  0.00803154  0.24107545    -0.12700
C812        C  0.11141396  0.99657752  0.25940031    -0.11000
C813        C  0.12790474  0.02592358  0.21276428     0.01800
C814        C  0.12789138  0.03359067  0.19665372    -0.31000
C815        C  0.12895940  0.98084165  0.28753178     0.03200
C816        C  0.12900020  0.97323324  0.30365206    -0.32700
H817        H  0.15921489  0.99520223  0.26610964     0.14200
H818        H  0.15873181  0.01516846  0.23381219     0.14000
H819        H  0.09766824  0.01148397  0.23417020     0.13900
H820        H  0.09815055  0.99151742  0.26646303     0.12900
C821        C  0.01915445  0.01627265  0.12735012     0.19300
C822        C  0.01299143  0.98668735  0.11656200    -0.09900
C823        C  0.99392529  0.97612342  0.11679570    -0.10700
C824        C  0.98092836  0.99506852  0.12784015     0.20800
C825        C  0.98710554  0.02453713  0.13870089    -0.12700
C826        C  0.00617467  0.03510350  0.13846686    -0.11000
C827        C  0.96120410  0.98486692  0.12776862     0.01800
C828        C  0.94449047  0.97790250  0.12771840    -0.31000
C829        C  0.03882411  0.02689191  0.12713670     0.03200
C830        C  0.05551714  0.03405745  0.12690060    -0.32700
H831        H  0.02291516  0.97183851  0.10796046     0.14200
H832        H  0.98931317  0.95333902  0.10832778     0.14000
H833        H  0.97717332  0.03942009  0.14727887     0.13900
H834        H  0.01078178  0.05792598  0.14691134     0.12900
C835        C  0.87603687  0.74746682  0.12667939     0.19300
C836        C  0.88175807  0.72805761  0.11102964    -0.09900
C837        C  0.87845031  0.69020399  0.10979870    -0.10700
C838        C  0.86934781  0.67170846  0.12417978     0.20800
C839        C  0.86360166  0.69114231  0.13980562    -0.12700
C840        C  0.86691018  0.72896663  0.14103724    -0.11000
C841        C  0.86672117  0.63255172  0.12331240     0.01800
C842        C  0.86587396  0.59946794  0.12331476    -0.31000
C843        C  0.87889195  0.78654400  0.12779153     0.03200
C844        C  0.87991346  0.81956763  0.12866231    -0.32700
H845        H  0.88873367  0.74216421  0.09980971     0.14200
H846        H  0.88306819  0.67534845  0.09771095     0.14000
H847        H  0.85667359  0.67703456  0.15105364     0.13900
H848        H  0.86233903  0.74378462  0.15315402     0.12900
C849        C  0.86644815  0.17139063  0.12677879     0.19300
C850        C  0.86933982  0.18846724  0.14377329    -0.09900
C851        C  0.87270233  0.22633802  0.14465480    -0.10700
C852        C  0.87325046  0.24725931  0.12853813     0.20800
C853        C  0.87029845  0.23020814  0.11154606    -0.12700
C854        C  0.86693708  0.19232724  0.11066412    -0.11000
C855        C  0.87630292  0.28634137  0.12943966     0.01800
C856        C  0.87774287  0.31936474  0.12986520    -0.31000
C857        C  0.86389071  0.13217756  0.12588437     0.03200
C858        C  0.86328193  0.09905048  0.12574381    -0.32700
H859        H  0.86911586  0.17247551  0.15630873     0.14200
H860        H  0.87487700  0.23928172  0.15787176     0.14000
H861        H  0.87060358  0.24618052  0.09900666     0.13900
H862        H  0.86484405  0.17935168  0.09744339     0.12900
C863        C  0.98152439  0.49175599  0.12479862     0.19300
C864        C  0.98944131  0.50727404  0.14062211    -0.09900
C865        C  0.00846891  0.51805331  0.14076606    -0.10700
C866        C  0.01968242  0.51343845  0.12507277     0.20800
C867        C  0.01175806  0.49803243  0.10921474    -0.12700
C868        C  0.99271321  0.48724804  0.10906995    -0.11000
C869        C  0.03941388  0.52358367  0.12541494     0.01800
C870        C  0.05612270  0.53056128  0.12581248    -0.31000
C871        C  0.96184249  0.48123069  0.12467071     0.03200
C872        C  0.94512936  0.47426288  0.12495972    -0.32700
H873        H  0.98090608  0.51103634  0.15283963     0.14200
H874        H  0.01444815  0.52983171  0.15311504     0.14000
H875        H  0.02030907  0.49423675  0.09701083     0.13900
H876        H  0.98672897  0.47542858  0.09673364     0.12900
C877        C  0.01796462  0.49245524  0.37219648     0.19300
C878        C  0.00633362  0.48363687  0.35726978    -0.09900
C879        C  0.98733588  0.49473524  0.35713234    -0.10700
C880        C  0.97988859  0.51477175  0.37190330     0.20800
C881        C  0.99153870  0.52364889  0.38680251    -0.12700
C882        C  0.01052389  0.51255499  0.38694039    -0.11000
C883        C  0.96020409  0.52536985  0.37199950     0.01800
C884        C  0.94353430  0.53277404  0.37236487    -0.31000
C885        C  0.03760535  0.48159755  0.37229032     0.03200
C886        C  0.05428297  0.47429622  0.37259192    -0.32700
H887        H  0.01194206  0.46822412  0.34576166     0.14200
H888        H  0.97845342  0.48760450  0.34556341     0.14000
H889        H  0.98593381  0.53901916  0.39832688     0.13900
H890        H  0.01939430  0.51964901  0.39852467     0.12900
C891        C  0.87165935  0.49453779  0.23273931     0.19300
C892        C  0.88566556  0.51837073  0.23943048    -0.09900
C893        C  0.88518636  0.53012836  0.25770518    -0.10700
C894        C  0.87067570  0.51818595  0.26941238     0.20800
C895        C  0.85666986  0.49433056  0.26273239    -0.12700
C896        C  0.85714840  0.48256977  0.24445044    -0.11000
C897        C  0.87039391  0.52962923  0.28835851     0.01800
C898        C  0.87023960  0.53742444  0.30445675    -0.31000
C899        C  0.87199532  0.48315170  0.21377767     0.03200
C900        C  0.87238617  0.47549203  0.19766062    -0.32700
H901        H  0.89692855  0.52791751  0.23051157     0.14200
H902        H  0.89613598  0.54844743  0.26270705     0.14000
H903        H  0.84541382  0.48477941  0.27165924     0.13900
H904        H  0.84620413  0.46424069  0.23944796     0.12900
C905        C  0.87451517  0.76362063  0.37262210     0.19300
C906        C  0.85613052  0.77763355  0.37053891    -0.09900
C907        C  0.85282938  0.81544694  0.37209166    -0.10700
C908        C  0.86790270  0.83937271  0.37577616     0.20800
C909        C  0.88628649  0.82536358  0.37784418    -0.12700
C910        C  0.88958710  0.78755625  0.37629207    -0.11000
C911        C  0.86471465  0.87835870  0.37713338     0.01800
C912        C  0.86356665  0.91139962  0.37787411    -0.31000
C913        C  0.87768577  0.72458866  0.37152465     0.03200
C914        C  0.87883688  0.69151178  0.37132055    -0.32700
H915        H  0.84435763  0.75931655  0.36778477     0.14200
H916        H  0.83857153  0.82599572  0.37042265     0.14000
H917        H  0.89805128  0.84366839  0.38065048     0.13900
H918        H  0.90383724  0.77700301  0.37801372     0.12900
C919        C  0.87490539  0.26356993  0.37195233     0.19300
C920        C  0.87477306  0.28126251  0.38902155    -0.09900
C921        C  0.87120334  0.31903804  0.39010642    -0.10700
C922        C  0.86768066  0.33928237  0.37413225     0.20800
C923        C  0.86780818  0.32161382  0.35705236    -0.12700
C924        C  0.87137628  0.28380641  0.35596685    -0.11000
C925        C  0.86474338  0.37839037  0.37521049     0.01800
C926        C  0.86369916  0.41145215  0.37594379    -0.31000
C927        C  0.87784451  0.22443117  0.37101035     0.03200
C928        C  0.87890226  0.19132595  0.37108051    -0.32700
H929        H  0.87735897  0.26583412  0.40148079     0.14200
H930        H  0.87125469  0.33246652  0.40337122     0.14000
H931        H  0.86521727  0.33706439  0.34460183     0.13900
H932        H  0.87131957  0.27036059  0.34270736     0.12900
C933        C  0.97983014  0.01363993  0.37210048     0.19300
C934        C  0.98477322  0.97637673  0.37063602    -0.09900
C935        C  0.00386851  0.96591927  0.37025812    -0.10700
C936        C  0.01812412  0.99267699  0.37133970     0.20800
C937        C  0.01317192  0.02993043  0.37275889    -0.12700
C938        C  0.99408728  0.04038173  0.37313740    -0.11000
C939        C  0.03782504  0.98211945  0.37118631     0.01800
C940        C  0.05454355  0.97506306  0.37136033    -0.31000
C941        C  0.96015434  0.02430209  0.37268876     0.03200
C942        C  0.94351671  0.03195094  0.37330031    -0.32700
H943        H  0.97387793  0.95543785  0.36984204     0.14200
H944        H  0.00750629  0.93703402  0.36918058     0.14000
H945        H  0.02406106  0.05086942  0.37362820     0.13900
H946        H  0.99045605  0.06925900  0.37429046     0.12900
C947        C  0.87078035  0.01466027  0.27067673     0.19300
C948        C  0.88800337  0.01211351  0.26116740    -0.09900
C949        C  0.88831903  0.99972636  0.24299520    -0.10700
C950        C  0.87141831  0.98972228  0.23422618     0.20800
C951        C  0.85419716  0.99219264  0.24374722    -0.12700
C952        C  0.85388161  0.00458067  0.26192305    -0.11000
C953        C  0.87168459  0.97831796  0.21528081     0.01800
C954        C  0.87198510  0.97106844  0.19912450    -0.31000
C955        C  0.87051018  0.02666708  0.28952921     0.03200
C956        C  0.87034573  0.03493665  0.30556500    -0.32700
H957        H  0.90117195  0.01967535  0.26779797     0.14200
H958        H  0.90171355  0.99812487  0.23576100     0.14000
H959        H  0.84102437  0.98472508  0.23709898     0.13900
H960        H  0.84048244  0.00627815  0.26914410     0.12900
C961        C  0.76602272  0.61069371  0.37337682     0.19300
C962        C  0.74996202  0.59480206  0.38143818    -0.09900
C963        C  0.73267683  0.61368378  0.38134286    -0.10700
C964        C  0.73137413  0.64857856  0.37322820     0.20800
C965        C  0.74739983  0.66434941  0.36505548    -0.12700
C966        C  0.76468002  0.64546985  0.36514763    -0.11000
C967        C  0.71349932  0.66773014  0.37310076     0.01800
C968        C  0.69784347  0.68105676  0.37299100    -0.31000
C969        C  0.78404867  0.59210247  0.37398820     0.03200
C970        C  0.79984710  0.57945440  0.37456211    -0.32700
H971        H  0.75082642  0.56798444  0.38788022     0.14200
H972        H  0.72035106  0.60114250  0.38762812     0.14000
H973        H  0.74655130  0.69122049  0.35866692     0.13900
H974        H  0.77701648  0.65806986  0.35891207     0.12900
C975        C  0.63157600  0.92100405  0.37561126     0.19300
C976        C  0.62741740  0.94200383  0.39120561    -0.09900
C977        C  0.62405650  0.97977159  0.38955025    -0.10700
C978        C  0.62477052  0.99664261  0.37228825     0.20800
C979        C  0.62898058  0.97566345  0.35670061    -0.12700
C980        C  0.63234221  0.93789897  0.35835584    -0.11000
C981        C  0.62180153  0.03564609  0.37069853     0.01800
C982        C  0.62046692  0.06865590  0.36997256    -0.31000
C983        C  0.63410953  0.88187020  0.37712886     0.03200
C984        C  0.63474049  0.84876050  0.37759651    -0.32700
H985        H  0.62665693  0.92915852  0.40459511     0.14200
H986        H  0.62091277  0.99580327  0.40170373     0.14000
H987        H  0.62966781  0.98848363  0.34330062     0.13900
H988        H  0.63541295  0.92184599  0.34619180     0.12900
C989        C  0.63235471  0.42062969  0.37656849     0.19300
C990        C  0.62795106  0.44087397  0.39235039    -0.09900
C991        C  0.62455256  0.47869848  0.39109884    -0.10700
C992        C  0.62547304  0.49639289  0.37405298     0.20800
C993        C  0.62992960  0.47616641  0.35827794    -0.12700
C994        C  0.63332881  0.43834664  0.35952949    -0.11000
C995        C  0.62243354  0.53545052  0.37285345     0.01800
C996        C  0.62103002  0.56846765  0.37220421    -0.31000
C997        C  0.63486444  0.38142154  0.37766407     0.03200
C998        C  0.63537939  0.34828689  0.37784827    -0.32700
H999        H  0.62701674  0.42739187  0.40556958     0.14200
H1000       H  0.62120867  0.49412961  0.40339837     0.14000
H1001       H  0.63076980  0.48961288  0.34504311     0.13900
H1002       H  0.63657841  0.42288682  0.34721497     0.12900
C1003       C  0.76623628  0.11103854  0.37372726     0.19300
C1004       C  0.76544079  0.14954135  0.37471984    -0.09900
C1005       C  0.74795470  0.16763838  0.37420249    -0.10700
C1006       C  0.73117100  0.14732083  0.37268472     0.20800
C1007       C  0.73196408  0.10881660  0.37160930    -0.12700
C1008       C  0.74945781  0.09071133  0.37212846    -0.11000
C1009       C  0.71310399  0.16574516  0.37238569     0.01800
C1010       C  0.69741449  0.17890377  0.37218052    -0.31000
C1011       C  0.78431184  0.09269437  0.37443007     0.03200
C1012       C  0.80009141  0.08002038  0.37511562    -0.32700
H1013       H  0.77832984  0.16553925  0.37594464     0.14200
H1014       H  0.74752070  0.19739930  0.37504313     0.14000
H1015       H  0.71906897  0.09282379  0.37043119     0.13900
H1016       H  0.74989495  0.06094546  0.37133635     0.12900
C1017       C  0.76737612  0.89794287  0.12858748     0.19300
C1018       C  0.76375585  0.87093508  0.11532140    -0.09900
C1019       C  0.74653957  0.85181667  0.11541723    -0.10700
C1020       C  0.73286938  0.85951972  0.12882469     0.20800
C1021       C  0.73649316  0.88651132  0.14209992    -0.12700
C1022       C  0.75371185  0.90563175  0.14200434    -0.11000
C1023       C  0.71483607  0.84090440  0.12856109     0.01800
C1024       C  0.69907639  0.82804255  0.12813121    -0.31000
C1025       C  0.78537091  0.91670377  0.12876304     0.03200
C1026       C  0.80109460  0.92975451  0.12897933    -0.32700
H1027       H  0.77425851  0.86460474  0.10493460     0.14200
H1028       H  0.74386395  0.83118558  0.10502340     0.14000
H1029       H  0.72598086  0.89286816  0.15247370     0.13900
H1030       H  0.75638091  0.92629189  0.15238526     0.12900
C1031       C  0.62567398  0.74291502  0.26885354     0.19300
C1032       C  0.64214017  0.73860251  0.25831174    -0.09900
C1033       C  0.64250448  0.75043899  0.24005448    -0.10700
C1034       C  0.62641901  0.76673368  0.23224204     0.20800
C1035       C  0.60994103  0.77099178  0.24277659    -0.12700
C1036       C  0.60957705  0.75915454  0.26103679    -0.11000
C1037       C  0.62670604  0.77818912  0.21331468     0.01800
C1038       C  0.62705071  0.78591779  0.19721967    -0.31000
C1039       C  0.62546234  0.73171721  0.28781308     0.03200
C1040       C  0.62536192  0.72419111  0.30392963    -0.32700
H1041       H  0.65469626  0.72622239  0.26421717     0.14200
H1042       H  0.65530445  0.74685230  0.23203144     0.14000
H1043       H  0.59739137  0.78340310  0.23687624     0.13900
H1044       H  0.59678505  0.76277051  0.26906840     0.12900
C1045       C  0.63005340  0.58714336  0.12992956     0.19300
C1046       C  0.64505045  0.56330533  0.13402078    -0.09900
C1047       C  0.64191678  0.52534174  0.13482275    -0.10700
C1048       C  0.62377519  0.51105007  0.13156626     0.20800
C1049       C  0.60872940  0.53491693  0.12767161    -0.12700
C1050       C  0.61186264  0.57289095  0.12687510    -0.11000
C1051       C  0.62090960  0.47184526  0.13149769     0.01800
C1052       C  0.62004721  0.43875189  0.13076342    -0.31000
C1053       C  0.63324678  0.62617767  0.12870633     0.03200
C1054       C  0.63466235  0.65915887  0.12760329    -0.32700
H1055       H  0.65915727  0.57401768  0.13643374     0.14200
H1056       H  0.65367283  0.50710283  0.13778001     0.14000
H1057       H  0.59466611  0.52417065  0.12506485     0.13900
H1058       H  0.60015092  0.59110805  0.12372889     0.12900
C1059       C  0.62462968  0.01142263  0.12913147     0.19300
C1060       C  0.61216847  0.03657892  0.13727295    -0.09900
C1061       C  0.61580587  0.07434566  0.13608233    -0.10700
C1062       C  0.63191670  0.08710066  0.12676843     0.20800
C1063       C  0.64436104  0.06193938  0.11861379    -0.12700
C1064       C  0.64072550  0.02418927  0.11980406    -0.11000
C1065       C  0.63539863  0.12602212  0.12539545     0.01800
C1066       C  0.63679882  0.15903421  0.12453497    -0.31000
C1067       C  0.62112872  0.97248600  0.13033235     0.03200
C1068       C  0.61987531  0.93941016  0.13053081    -0.32700
H1069       H  0.59968868  0.02702992  0.14451274     0.14200
H1070       H  0.60605047  0.09360173  0.14238907     0.14000
H1071       H  0.65681680  0.07148027  0.11133217     0.13900
H1072       H  0.65045932  0.00494618  0.11345474     0.12900
C1073       C  0.76761940  0.40172637  0.12688126     0.19300
C1074       C  0.75142048  0.41783105  0.11923537    -0.09900
C1075       C  0.73425050  0.39853908  0.11911983    -0.10700
C1076       C  0.73319831  0.36305076  0.12661692     0.20800
C1077       C  0.74939594  0.34697723  0.13426832    -0.12700
C1078       C  0.76655648  0.36626044  0.13438535    -0.11000
C1079       C  0.71541503  0.34354786  0.12661985     0.01800
C1080       C  0.69982698  0.32990434  0.12638595    -0.31000
C1081       C  0.78546040  0.42101331  0.12682497     0.03200
C1082       C  0.80119845  0.43397669  0.12705490    -0.32700
H1083       H  0.75207048  0.44516676  0.11335617     0.14200
H1084       H  0.72179494  0.41128742  0.11319612     0.14000
H1085       H  0.74875825  0.31962826  0.14013342     0.13900
H1086       H  0.77901254  0.35348912  0.14029604     0.12900
C1087       C  0.62812093  0.26786092  0.23115929     0.19300
C1088       C  0.64203865  0.24449164  0.23838613    -0.09900
C1089       C  0.64131924  0.23393402  0.25682897    -0.10700
C1090       C  0.62665978  0.24663192  0.26815862     0.20800
C1091       C  0.61278181  0.27013575  0.26095524    -0.12700
C1092       C  0.61350074  0.28069512  0.24250487    -0.11000
C1093       C  0.62598772  0.23593580  0.28719425     0.01800
C1094       C  0.62556961  0.22809170  0.30327776    -0.31000
C1095       C  0.62861251  0.27783509  0.21202432     0.03200
C1096       C  0.62896790  0.28460357  0.19582046    -0.32700
H1097       H  0.65338630  0.23430847  0.22974840     0.14200
H1098       H  0.65216207  0.21585301  0.26223982     0.14000
H1099       H  0.60140811  0.28023571  0.26958442     0.13900
H1100       H  0.60263146  0.29869548  0.23707646     0.12900
C1101       C  0.26689074  0.86046534  0.37306326     0.19300
C1102       C  0.25256211  0.84909224  0.38510853    -0.09900
C1103       C  0.23531553  0.86808991  0.38571620    -0.10700
C1104       C  0.23230913  0.89861738  0.37432361     0.20800
C1105       C  0.24667520  0.91010343  0.36234659    -0.12700
C1106       C  0.26392206  0.89110808  0.36174032    -0.11000
C1107       C  0.21423348  0.91713217  0.37450113     0.01800
C1108       C  0.19842300  0.92982225  0.37465899    -0.31000
C1109       C  0.28478536  0.84133212  0.37252412     0.03200
C1110       C  0.30040184  0.82782115  0.37193013    -0.32700
H1111       H  0.25470768  0.82557539  0.39398518     0.14200
H1112       H  0.22428261  0.85884322  0.39498594     0.14000
H1113       H  0.24450671  0.93354166  0.35342415     0.13900
H1114       H  0.27493227  0.90027817  0.35242616     0.12900
C1115       C  0.51803991  0.74203634  0.37667571     0.19300
C1116       C  0.51008865  0.76025230  0.39177057    -0.09900
C1117       C  0.49114804  0.77157619  0.39129950    -0.10700
C1118       C  0.48010628  0.76479907  0.37570945     0.20800
C1119       C  0.48807073  0.74662605  0.36061169    -0.12700
C1120       C  0.50700084  0.73530486  0.36108337    -0.11000
C1121       C  0.46048102  0.77550944  0.37533439     0.01800
C1122       C  0.44379202  0.78248864  0.37480027    -0.31000
C1123       C  0.53766384  0.73131936  0.37695246     0.03200
C1124       C  0.55435198  0.72426482  0.37683159    -0.32700
H1125       H  0.51853408  0.76576970  0.40386046     0.14200
H1126       H  0.48511538  0.78549602  0.40307006     0.14000
H1127       H  0.47963790  0.74113908  0.34850905     0.13900
H1128       H  0.51303306  0.72142101  0.34930102     0.12900
C1129       C  0.36652958  0.58587494  0.37289433     0.19300
C1130       C  0.35962036  0.56674762  0.35762352    -0.09900
C1131       C  0.36283908  0.52892968  0.35593636    -0.10700
C1132       C  0.37304434  0.51011806  0.36947635     0.20800
C1133       C  0.37987339  0.52920881  0.38479125    -0.12700
C1134       C  0.37665430  0.56702681  0.38647879    -0.11000
C1135       C  0.37600385  0.47108067  0.36792259     0.01800
C1136       C  0.37735654  0.43806827  0.36709884    -0.31000
C1137       C  0.36409237  0.62509079  0.37415643     0.03200
C1138       C  0.36348401  0.65821998  0.37452834    -0.32700
H1139       H  0.35188474  0.58110054  0.34697932     0.14200
H1140       H  0.35739961  0.51438419  0.34408926     0.14000
H1141       H  0.38768620  0.51488505  0.39539268     0.13900
H1142       H  0.38217014  0.58160142  0.39828316     0.12900
C1143       C  0.36601229  0.08609458  0.37336471     0.19300
C1144       C  0.37493853  0.06815770  0.38800091    -0.09900
C1145       C  0.37860814  0.03039958  0.38701896    -0.10700
C1146       C  0.37343310  0.01048387  0.37136250     0.20800
C1147       C  0.36448837  0.02841356  0.35673710    -0.12700
C1148       C  0.36081896  0.06616301  0.35771907    -0.11000
C1149       C  0.37664178  0.97145517  0.37054814     0.01800
C1150       C  0.37797949  0.93842770  0.37006736    -0.31000
C1151       C  0.36311274  0.12523042  0.37399813     0.03200
C1152       C  0.36230912  0.15833785  0.37391751    -0.32700
H1153       H  0.37915334  0.08338952  0.40010106     0.14200
H1154       H  0.38544079  0.01675164  0.39844467     0.14000
H1155       H  0.36033743  0.01321083  0.34460605     0.13900
H1156       H  0.35405111  0.07982928  0.34626255     0.12900
C1157       C  0.26631217  0.35945233  0.37115012     0.19300
C1158       C  0.25296743  0.35084714  0.38472522    -0.09900
C1159       C  0.23574949  0.36991715  0.38552498    -0.10700
C1160       C  0.23179336  0.39778137  0.37278813     0.20800
C1161       C  0.24515135  0.40642151  0.35922963    -0.12700
C1162       C  0.26236999  0.38735158  0.35843035    -0.11000
C1163       C  0.21376368  0.41645583  0.37330497     0.01800
C1164       C  0.19800688  0.42937153  0.37381610    -0.31000
C1165       C  0.28427807  0.34057361  0.37054990     0.03200
C1166       C  0.29995065  0.32729978  0.36999148    -0.32700
H1167       H  0.25587915  0.32947101  0.39469330     0.14200
H1168       H  0.22550201  0.36285649  0.39601618     0.14000
H1169       H  0.24223262  0.42777161  0.34925022     0.13900
H1170       H  0.27261131  0.39438532  0.34792867     0.12900
C1171       C  0.51774791  0.24060372  0.37625083     0.19300
C1172       C  0.51274506  0.27711308  0.37241430    -0.09900
C1173       C  0.49366447  0.28737583  0.37174028    -0.10700
C1174       C  0.47948508  0.26116917  0.37490416     0.20800
C1175       C  0.48447794  0.22467568  0.37884804    -0.12700
C1176       C  0.50357786  0.21440184  0.37952093    -0.11000
C1177       C  0.45983092  0.27154898  0.37384909     0.01800
C1178       C  0.44322003  0.27904211  0.37283461    -0.31000
C1179       C  0.53742502  0.23021926  0.37655479     0.03200
C1180       C  0.55416931  0.22365732  0.37634086    -0.32700
H1181       H  0.52359402  0.29759013  0.36984990     0.14200
H1182       H  0.48997256  0.31563851  0.36866399     0.14000
H1183       H  0.47361761  0.20416923  0.38130149     0.13900
H1184       H  0.50728232  0.18609745  0.38248561     0.12900
C1185       C  0.23307962  0.61107038  0.12715250     0.19300
C1186       C  0.23519037  0.64252938  0.11620756    -0.09900
C1187       C  0.25246240  0.66142694  0.11582273    -0.10700
C1188       C  0.26770986  0.64899444  0.12641920     0.20800
C1189       C  0.26558414  0.61759795  0.13741138    -0.12700
C1190       C  0.24830796  0.59869455  0.13779560    -0.11000
C1191       C  0.28570648  0.66767313  0.12570925     0.01800
C1192       C  0.30145925  0.68056161  0.12536384    -0.31000
C1193       C  0.21515958  0.59208905  0.12760292     0.03200
C1194       C  0.19945124  0.57898583  0.12754409    -0.32700
H1195       H  0.22348159  0.65243075  0.10796533     0.14200
H1196       H  0.25394626  0.68556799  0.10723489     0.14000
H1197       H  0.27730671  0.60765697  0.14562314     0.13900
H1198       H  0.24683270  0.57450693  0.14635232     0.12900
C1199       C  0.51944058  0.76315832  0.12414349     0.19300
C1200       C  0.50511066  0.78869014  0.12797214    -0.09900
C1201       C  0.48608691  0.77809083  0.12700221    -0.10700
C1202       C  0.48129989  0.74192431  0.12219933     0.20800
C1203       C  0.49562431  0.71641261  0.11829183    -0.12700
C1204       C  0.51465845  0.72701875  0.11926044    -0.11000
C1205       C  0.46168849  0.73113087  0.12153362     0.01800
C1206       C  0.44499095  0.72411008  0.12150406    -0.31000
C1207       C  0.53904306  0.77386495  0.12529093     0.03200
C1208       C  0.55567887  0.78127491  0.12604591    -0.32700
H1209       H  0.50863931  0.81668770  0.13175284     0.14200
H1210       H  0.47511624  0.79803701  0.13006332     0.14000
H1211       H  0.49208918  0.68838285  0.11457686     0.13900
H1212       H  0.52563572  0.70704740  0.11626384     0.12900
C1213       C  0.37239577  0.76634433  0.26629653     0.19300
C1214       C  0.38965042  0.76213627  0.25698895    -0.09900
C1215       C  0.38983805  0.75102579  0.23861534    -0.10700
C1216       C  0.37277397  0.74397485  0.22944743     0.20800
C1217       C  0.35551610  0.74821952  0.23874752    -0.12700
C1218       C  0.35532844  0.75933177  0.25712464    -0.11000
C1219       C  0.37296860  0.73316460  0.21042436     0.01800
C1220       C  0.37319481  0.72559089  0.19430920    -0.31000
C1221       C  0.37224212  0.77686055  0.28536048     0.03200
C1222       C  0.37226209  0.78396773  0.30152923    -0.32700
H1223       H  0.40294225  0.76733186  0.26394536     0.14200
H1224       H  0.40326930  0.74796674  0.23156157     0.14000
H1225       H  0.34222699  0.74297499  0.23179593     0.13900
H1226       H  0.34189994  0.76234500  0.26418759     0.12900
C1227       C  0.36888699  0.92043487  0.12169103     0.19300
C1228       C  0.37143642  0.93679861  0.13891690    -0.09900
C1229       C  0.37523721  0.97447989  0.14024119    -0.10700
C1230       C  0.37657991  0.99591262  0.12433215     0.20800
C1231       C  0.37401147  0.97954847  0.10711405    -0.12700
C1232       C  0.37021042  0.94188062  0.10579026    -0.11000
C1233       C  0.37976340  0.03493154  0.12560629     0.01800
C1234       C  0.38089127  0.06801876  0.12579610    -0.31000
C1235       C  0.36581755  0.88138978  0.12035902     0.03200
C1236       C  0.36484172  0.84829050  0.12000273    -0.32700
H1237       H  0.37057056  0.92040067  0.15130157     0.14200
H1238       H  0.37707126  0.98688754  0.15362683     0.14000
H1239       H  0.37489335  0.99593310  0.09472596     0.13900
H1240       H  0.36839248  0.92947564  0.09240217     0.12900
C1241       C  0.37605023  0.49585726  0.12586184     0.19300
C1242       C  0.37464156  0.47441473  0.14176929    -0.09900
C1243       C  0.37131569  0.43656063  0.14041727    -0.10700
C1244       C  0.36932088  0.42004513  0.12316101     0.20800
C1245       C  0.37080975  0.44147241  0.10726544    -0.12700
C1246       C  0.37413751  0.47929661  0.10861620    -0.11000
C1247       C  0.36641430  0.38096503  0.12175278     0.01800
C1248       C  0.36528728  0.34792927  0.12081967    -0.31000
C1249       C  0.37866105  0.53503397  0.12715644     0.03200
C1250       C  0.37957080  0.56814080  0.12756638    -0.32700
H1251       H  0.37601054  0.48696324  0.15517584     0.14200
H1252       H  0.37031580  0.42018747  0.15279882     0.14000
H1253       H  0.36941731  0.42894873  0.09385535     0.13900
H1254       H  0.37511499  0.49565849  0.09622860     0.12900
C1255       C  0.23339899  0.10758468  0.12730545     0.19300
C1256       C  0.24384590  0.11383333  0.14334389    -0.09900
C1257       C  0.26109097  0.13287391  0.14251551    -0.10700
C1258       C  0.26793710  0.14589498  0.12566138     0.20800
C1259       C  0.25747439  0.13965229  0.10964778    -0.12700
C1260       C  0.24025624  0.12062605  0.11047408    -0.11000
C1261       C  0.28600728  0.16436173  0.12465689     0.01800
C1262       C  0.30170193  0.17744794  0.12360646    -0.31000
C1263       C  0.21529962  0.08918325  0.12808621     0.03200
C1264       C  0.19947584  0.07652967  0.12799814    -0.32700
H1265       H  0.23864651  0.10410975  0.15645672     0.14200
H1266       H  0.26910034  0.13733989  0.15498409     0.14000
H1267       H  0.26265263  0.14938129  0.09652757     0.13900
H1268       H  0.23225777  0.11618784  0.09799525     0.12900
C1269       C  0.52012376  0.26273564  0.12499377     0.19300
C1270       C  0.51293574  0.24151445  0.11054002    -0.09900
C1271       C  0.49375681  0.23172864  0.11024122    -0.10700
C1272       C  0.48166669  0.24306386  0.12441160     0.20800
C1273       C  0.48885608  0.26428573  0.13886670    -0.12700
C1274       C  0.50803711  0.27407255  0.13916542    -0.11000
C1275       C  0.46185497  0.23344245  0.12399017     0.01800
C1276       C  0.44512811  0.22655615  0.12359248    -0.31000
C1277       C  0.53992326  0.27241957  0.12537245     0.03200
C1278       C  0.55664483  0.27935454  0.12557678    -0.32700
H1279       H  0.52215240  0.23252422  0.09952319     0.14200
H1280       H  0.48835924  0.21540137  0.09897261     0.14000
H1281       H  0.47963718  0.27329457  0.14987746     0.13900
H1282       H  0.51343529  0.29041893  0.15042685     0.12900
C1283       C  0.37158152  0.26355595  0.26420681     0.19300
C1284       C  0.38770278  0.24689549  0.25661839    -0.09900
C1285       C  0.38771855  0.23566996  0.23825903    -0.10700
C1286       C  0.37159925  0.24096408  0.22737195     0.20800
C1287       C  0.35546889  0.25762029  0.23495435    -0.12700
C1288       C  0.35545264  0.26884858  0.25332128    -0.11000
C1289       C  0.37175291  0.23012248  0.20834454     0.01800
C1290       C  0.37186934  0.22264585  0.19221274    -0.31000
C1291       C  0.37149766  0.27440827  0.28323844     0.03200
C1292       C  0.37158679  0.28181856  0.29938197    -0.32700
H1293       H  0.40023867  0.24253257  0.26489925     0.14200
H1294       H  0.40029649  0.22294828  0.23255099     0.14000
H1295       H  0.34293782  0.26198570  0.22666671     0.13900
H1296       H  0.34287762  0.28157763  0.25903145     0.12900
C1297       C  0.12403482  0.95234437  0.48074503     0.19300
C1298       C  0.10882630  0.96772696  0.49045589    -0.09900
C1299       C  0.10897111  0.96803977  0.50964210    -0.10700
C1300       C  0.12432549  0.95297550  0.51922621     0.20800
C1301       C  0.13946438  0.93731770  0.50951779    -0.12700
C1302       C  0.13931947  0.93700455  0.49032956    -0.11000
C1303       C  0.12462691  0.95392369  0.53898152     0.01800
C1304       C  0.12489698  0.95486510  0.55552046    -0.31000
C1305       C  0.12409994  0.95282553  0.46098370     0.03200
C1306       C  0.12434151  0.95358065  0.44444185    -0.32700
H1307       H  0.09692994  0.97966407  0.48320241     0.14200
H1308       H  0.09717843  0.98019454  0.51699304     0.14000
H1309       H  0.15140783  0.92555795  0.51677116     0.13900
H1310       H  0.15115897  0.92502697  0.48297638     0.12900
C1311       C  0.12490334  0.45404896  0.48142477     0.19300
C1312       C  0.14029656  0.43961763  0.49119054    -0.09900
C1313       C  0.14017847  0.43984963  0.51037898    -0.10700
C1314       C  0.12466900  0.45451519  0.51992209     0.20800
C1315       C  0.10925941  0.46890723  0.51016140    -0.12700
C1316       C  0.10937745  0.46867552  0.49096655    -0.11000
C1317       C  0.12465329  0.45496955  0.53969083     0.01800
C1318       C  0.12492456  0.45538341  0.55623855    -0.31000
C1319       C  0.12507651  0.45397262  0.46165142     0.03200
C1320       C  0.12523932  0.45408933  0.44509767    -0.32700
H1321       H  0.15238462  0.42825248  0.48397938     0.14200
H1322       H  0.15218011  0.42866775  0.51776593     0.14000
H1323       H  0.09719225  0.48034461  0.51737760     0.13900
H1324       H  0.09739646  0.47993063  0.48357656     0.12900
C1325       C  0.12279006  0.74638812  0.62787911     0.19300
C1326       C  0.12768518  0.72609267  0.64349352    -0.09900
C1327       C  0.13158512  0.68849116  0.64200421    -0.10700
C1328       C  0.13068504  0.67108862  0.62488337     0.20800
C1329       C  0.12584038  0.69140408  0.60926098    -0.12700
C1330       C  0.12194058  0.72900447  0.61075034    -0.11000
C1331       C  0.13370053  0.63206000  0.62354776     0.01800
C1332       C  0.13457259  0.59897136  0.62314227    -0.31000
C1333       C  0.11952492  0.78534133  0.62924809     0.03200
C1334       C  0.11835816  0.81839986  0.62963191    -0.32700
H1335       H  0.12852715  0.73933203  0.65677716     0.14200
H1336       H  0.13518235  0.67296124  0.65419288     0.14000
H1337       H  0.12496899  0.67815326  0.59598208     0.13900
H1338       H  0.11831394  0.74452152  0.59856535     0.12900
C1339       C  0.13169672  0.17041169  0.62631934     0.19300
C1340       C  0.11895863  0.18521263  0.63910180    -0.09900
C1341       C  0.11623049  0.22326156  0.64009248    -0.10700
C1342       C  0.12620897  0.24666773  0.62827992     0.20800
C1343       C  0.13900944  0.23189111  0.61554124    -0.12700
C1344       C  0.14173693  0.19382193  0.61454804    -0.11000
C1345       C  0.12345152  0.28582901  0.62926828     0.01800
C1346       C  0.12203211  0.31885607  0.62973748    -0.31000
C1347       C  0.13401963  0.13117365  0.62506150     0.03200
C1348       C  0.13462619  0.09806560  0.62438901    -0.32700
H1349       H  0.11107701  0.16732609  0.64823357     0.14200
H1350       H  0.10633446  0.23439977  0.65001219     0.14000
H1351       H  0.14683205  0.24978079  0.60636375     0.13900
H1352       H  0.15157361  0.18266201  0.60457994     0.12900
C1353       C  0.12881028  0.55279734  0.01963672     0.19300
C1354       C  0.11180299  0.55381654  0.00974049    -0.09900
C1355       C  0.11212260  0.55356421  0.99055128    -0.10700
C1356       C  0.12944970  0.55228615  0.98115198     0.20800
C1357       C  0.14645281  0.55131077  0.99104813    -0.12700
C1358       C  0.14613339  0.55156413  0.01023420    -0.11000
C1359       C  0.12977536  0.55193982  0.96138967     0.01800
C1360       C  0.12991080  0.55167063  0.94484201    -0.31000
C1361       C  0.12850189  0.55281898  0.03940297     0.03200
C1362       C  0.12832414  0.55258364  0.05595273    -0.32700
H1363       H  0.09832108  0.55475489  0.01684814     0.14200
H1364       H  0.09888230  0.55432881  0.98305495     0.14000
H1365       H  0.15993423  0.55032101  0.98394147     0.13900
H1366       H  0.15937364  0.55074965  0.01772784     0.12900
C1367       C  0.12763961  0.51518385  0.76896277     0.19300
C1368       C  0.11074095  0.51420636  0.75890236    -0.09900
C1369       C  0.11093487  0.50321152  0.74051622    -0.10700
C1370       C  0.12801977  0.49305485  0.73209801     0.20800
C1371       C  0.14492285  0.49407552  0.74215141    -0.12700
C1372       C  0.14472885  0.50507219  0.76054058    -0.11000
C1373       C  0.12822103  0.48238344  0.71306701     0.01800
C1374       C  0.12808733  0.47504734  0.69693072    -0.31000
C1375       C  0.12738933  0.52565769  0.78801829     0.03200
C1376       C  0.12720197  0.53285726  0.80416816    -0.32700
H1377       H  0.09743221  0.52183898  0.76527719     0.14200
H1378       H  0.09778449  0.50266510  0.73286609     0.14000
H1379       H  0.15822840  0.48641919  0.73577826     0.13900
H1380       H  0.15787537  0.50559836  0.76819645     0.12900
C1381       C  0.12897971  0.05244416  0.01936824     0.19300
C1382       C  0.14466299  0.06584612  0.00961679    -0.09900
C1383       C  0.14466603  0.06540349  0.99041656    -0.10700
C1384       C  0.12898869  0.05155294  0.98085263     0.20800
C1385       C  0.11332252  0.03811879  0.99060645    -0.12700
C1386       C  0.11331932  0.03856118  0.00979702    -0.11000
C1387       C  0.12893194  0.05121022  0.96107214     0.01800
C1388       C  0.12876170  0.05095222  0.94451548    -0.31000
C1389       C  0.12892003  0.05288138  0.03915375     0.03200
C1390       C  0.12866080  0.05294365  0.05571451    -0.32700
H1391       H  0.15686242  0.07663624  0.01684566     0.14200
H1392       H  0.15686506  0.07587122  0.98303983     0.14000
H1393       H  0.10111659  0.02734185  0.98338183     0.13900
H1394       H  0.10111248  0.02810532  0.01716623     0.12900
C1395       C  0.13284902  0.83699223  0.87428854     0.19300
C1396       C  0.14267462  0.81521376  0.86160590    -0.09900
C1397       C  0.13925533  0.77734627  0.86076178    -0.10700
C1398       C  0.12595947  0.76114443  0.87255408     0.20800
C1399       C  0.11615438  0.78291976  0.88525053    -0.12700
C1400       C  0.11957416  0.82077691  0.88609580    -0.11000
C1401       C  0.12287366  0.72204293  0.87198589     0.01800
C1402       C  0.12158662  0.68898626  0.87175397    -0.31000
C1403       C  0.13579091  0.87613810  0.87478845     0.03200
C1404       C  0.13671338  0.90923688  0.87510143    -0.32700
H1405       H  0.15289421  0.82750049  0.85235020     0.14200
H1406       H  0.14698648  0.76070714  0.85095541     0.14000
H1407       H  0.10591714  0.77064616  0.89449328     0.13900
H1408       H  0.11182607  0.83741582  0.89588973     0.12900
C1409       C  0.13236127  0.33654586  0.87586431     0.16100
C1410       C  0.12826674  0.31553090  0.89147505    -0.09900
C1411       C  0.12444920  0.27791283  0.88978348    -0.10700
C1412       C  0.12462648  0.26117212  0.87247128     0.20800
C1413       C  0.12873548  0.28217909  0.85686388    -0.12700
C1414       C  0.13255337  0.31979456  0.85855525    -0.11000
C1415       C  0.12146633  0.22217469  0.87088689     0.01800
C1416       C  0.12033445  0.18908934  0.87042406    -0.31000
C1417       C  0.13542282  0.37558146  0.87742918     0.03200
C1418       C  0.13640051  0.40869006  0.87788143    -0.32700
H1419       H  0.12794166  0.32823569  0.90490914     0.14200
H1420       H  0.12142270  0.26186623  0.90196317     0.14000
H1421       H  0.12904540  0.26947947  0.84342792     0.13900
H1422       H  0.13556503  0.33584342  0.84637349     0.12900
C1423       C  0.12632447  0.01472132  0.76842015     0.19300
C1424       C  0.13918437  0.98796794  0.76230700    -0.09900
C1425       C  0.13907983  0.97662297  0.74395922    -0.10700
C1426       C  0.12609106  0.99191167  0.73159514     0.20800
C1427       C  0.11320608  0.01862084  0.73771136    -0.12700
C1428       C  0.11331052  0.02996940  0.75606465    -0.11000
C1429       C  0.12623504  0.98087756  0.71257813     0.01800
C1430       C  0.12645655  0.97325987  0.69645319    -0.31000
C1431       C  0.12640269  0.02607549  0.78739282     0.03200
C1432       C  0.12675944  0.03389336  0.80349280    -0.32700
H1433       H  0.14929251  0.97590059  0.77172004     0.14200
H1434       H  0.14915201  0.95604857  0.73941022     0.14000
H1435       H  0.10312943  0.03074519  0.72828510     0.13900
H1436       H  0.10326994  0.05060519  0.76060731     0.12900
C1437       C  0.87119164  0.95800941  0.02146563     0.19300
C1438       C  0.86861941  0.99097765  0.01180663    -0.09900
C1439       C  0.86863050  0.99099783  0.99260760    -0.10700
C1440       C  0.87121303  0.95804926  0.98292732     0.20800
C1441       C  0.87378761  0.92507017  0.99258380    -0.12700
C1442       C  0.87377653  0.92505000  0.01178804    -0.11000
C1443       C  0.87123224  0.95811382  0.96313068     0.01800
C1444       C  0.87126815  0.95828429  0.94656304    -0.31000
C1445       C  0.87121042  0.95804148  0.04126207     0.03200
C1446       C  0.87126933  0.95816353  0.05782950    -0.32700
H1447       H  0.86661359  0.01664420  0.01911145     0.14200
H1448       H  0.86663101  0.01668016  0.98531930     0.14000
H1449       H  0.87580437  0.89941033  0.98527596     0.13900
H1450       H  0.87578697  0.89937445  0.01907944     0.12900
C1451       C  0.01951363  0.01429979  0.87572299     0.19300
C1452       C  0.00987952  0.01362643  0.89253588    -0.09900
C1453       C  0.99078523  0.00329122  0.89322035    -0.10700
C1454       C  0.98124988  0.99350427  0.87709802     0.20800
C1455       C  0.99088869  0.99417157  0.86029257    -0.12700
C1456       C  0.00997441  0.00450503  0.85960811    -0.11000
C1457       C  0.96147849  0.98371105  0.87769132     0.01800
C1458       C  0.94473048  0.97705896  0.87777329    -0.31000
C1459       C  0.03926688  0.02422581  0.87504836     0.03200
C1460       C  0.05598784  0.03108580  0.87457297    -0.32700
H1461       H  0.01712660  0.02102866  0.90509410     0.14200
H1462       H  0.98346025  0.00301737  0.90628061     0.14000
H1463       H  0.98364193  0.98680021  0.84772898     0.13900
H1464       H  0.01728919  0.00480664  0.84654258     0.12900
C1465       C  0.87113663  0.45578826  0.02006951     0.19300
C1466       C  0.87824813  0.48595059  0.01024579    -0.09900
C1467       C  0.87783454  0.48595907  0.99104609    -0.10700
C1468       C  0.87030085  0.45581405  0.98152295     0.20800
C1469       C  0.86316139  0.42567446  0.99134631    -0.12700
C1470       C  0.86357486  0.42566616  0.01054911    -0.11000
C1471       C  0.87003899  0.45573608  0.96171690     0.01800
C1472       C  0.87009471  0.45587734  0.94514243    -0.31000
C1473       C  0.87156186  0.45578345  0.03987166     0.03200
C1474       C  0.87181794  0.45592507  0.05644318    -0.32700
H1475       H  0.88411995  0.50942498  0.01742087     0.14200
H1476       H  0.88341152  0.50942488  0.98363360     0.14000
H1477       H  0.85730957  0.40218491  0.98416924     0.13900
H1478       H  0.85801805  0.40218631  0.01796340     0.12900
C1479       C  0.86897309  0.67207869  0.87822910     0.19300
C1480       C  0.88725496  0.68668670  0.88015772    -0.09900
C1481       C  0.89016377  0.72468016  0.87894461    -0.10700
C1482       C  0.87479946  0.74820747  0.87576302     0.20800
C1483       C  0.85652072  0.73359948  0.87385700    -0.12700
C1484       C  0.85361256  0.69561453  0.87506934    -0.11000
C1485       C  0.87763086  0.78735292  0.87467582     0.01800
C1486       C  0.87877086  0.82042085  0.87407801    -0.31000
C1487       C  0.86616469  0.63289104  0.87896042     0.03200
C1488       C  0.86517976  0.59978258  0.87885746    -0.32700
H1489       H  0.89925545  0.66869499  0.88252075     0.14200
H1490       H  0.90434572  0.73567790  0.88046968     0.14000
H1491       H  0.84452924  0.75157678  0.87142318     0.13900
H1492       H  0.83944097  0.68461140  0.87347326     0.12900
C1493       C  0.86781967  0.17264580  0.87696508     0.19300
C1494       C  0.87950257  0.19032605  0.88974021    -0.09900
C1495       C  0.88319151  0.22796811  0.88809137    -0.10700
C1496       C  0.87526881  0.24804438  0.87361687     0.20800
C1497       C  0.86356611  0.23038373  0.86084329    -0.12700
C1498       C  0.85987823  0.19272247  0.86249092    -0.11000
C1499       C  0.87849759  0.28700536  0.87230135     0.01800
C1500       C  0.87985872  0.32001977  0.87173942    -0.31000
C1501       C  0.86484801  0.13359474  0.87819392     0.03200
C1502       C  0.86403986  0.10050315  0.87862487    -0.32700
H1503       H  0.88583635  0.17497441  0.90089993     0.14200
H1504       H  0.89216644  0.24141324  0.89810064     0.14000
H1505       H  0.85727601  0.24572879  0.84965709     0.13900
H1506       H  0.85094784  0.17924704  0.85245442     0.12900
C1507       C  0.01956426  0.51604420  0.87892582     0.19300
C1508       C  0.00629859  0.53609184  0.86873549    -0.09900
C1509       C  0.98722912  0.52562670  0.86880651    -0.10700
C1510       C  0.98134379  0.49504535  0.87904272     0.20800
C1511       C  0.99458592  0.47513336  0.88933353    -0.12700
C1512       C  0.01366391  0.48560504  0.88926349    -0.11000
C1513       C  0.96172564  0.48423957  0.87889427     0.01800
C1514       C  0.94507330  0.47693140  0.87832920    -0.31000
C1515       C  0.03929368  0.52598900  0.87838163     0.03200
C1516       C  0.05601189  0.53265717  0.87769077    -0.32700
H1517       H  0.01071123  0.55959857  0.86065636     0.14200
H1518       H  0.97709573  0.54125022  0.86081831     0.14000
H1519       H  0.99018806  0.45148237  0.89731402     0.13900
H1520       H  0.02382288  0.46984614  0.89715349     0.12900
C1521       C  0.87254129  0.55428465  0.48159738     0.19300
C1522       C  0.88960119  0.55504126  0.49140255    -0.09900
C1523       C  0.88937584  0.55498863  0.51058249    -0.10700
C1524       C  0.87209253  0.55418009  0.52005548     0.20800
C1525       C  0.85502602  0.55351852  0.51025467    -0.12700
C1526       C  0.85525128  0.55357159  0.49107063    -0.11000
C1527       C  0.87190110  0.55387985  0.53980017     0.01800
C1528       C  0.87187587  0.55353403  0.55633613    -0.31000
C1529       C  0.87277052  0.55407306  0.46184804     0.03200
C1530       C  0.87282718  0.55377938  0.44530823    -0.32700
H1531       H  0.90305216  0.55559938  0.48423028     0.14200
H1532       H  0.90265672  0.55550818  0.51801646     0.14000
H1533       H  0.84157733  0.55289442  0.51743077     0.13900
H1534       H  0.84197160  0.55298644  0.48363553     0.12900
C1535       C  0.01784043  0.49301339  0.62684964     0.19300
C1536       C  0.01073176  0.51302046  0.64178596    -0.09900
C1537       C  0.99180029  0.52451696  0.64197199    -0.10700
C1538       C  0.97987685  0.51612813  0.62720443     0.20800
C1539       C  0.98699563  0.49619400  0.61224944    -0.12700
C1540       C  0.00592696  0.48469678  0.61206358    -0.11000
C1541       C  0.96023189  0.52700428  0.62756978     0.01800
C1542       C  0.94352901  0.53416382  0.62770052    -0.31000
C1543       C  0.03744900  0.48186394  0.62655445     0.03200
C1544       C  0.05413045  0.47449756  0.62648268    -0.32700
H1545       H  0.01982252  0.51975174  0.65326319     0.14200
H1546       H  0.98645441  0.53980671  0.65363622     0.14000
H1547       H  0.97790079  0.48944166  0.60077827     0.13900
H1548       H  0.01126855  0.46938449  0.60040487     0.12900
C1549       C  0.87310262  0.49472663  0.76897926     0.19300
C1550       C  0.85697160  0.48723449  0.75842216    -0.09900
C1551       C  0.85622667  0.49823365  0.74004142    -0.10700
C1552       C  0.87159351  0.51685013  0.73212214     0.20800
C1553       C  0.88771940  0.52433469  0.74267832    -0.12700
C1554       C  0.88846457  0.51333752  0.76105398    -0.11000
C1555       C  0.87098561  0.52751443  0.71308997     0.01800
C1556       C  0.87062827  0.53499971  0.69696921    -0.31000
C1557       C  0.87374351  0.48411487  0.78802311     0.03200
C1558       C  0.87417772  0.47674273  0.80415913    -0.32700
H1559       H  0.84497813  0.47297832  0.76440180     0.14200
H1560       H  0.84370388  0.49217634  0.73200766     0.14000
H1561       H  0.89971299  0.53859487  0.73670072     0.13900
H1562       H  0.90098839  0.51940216  0.76908390     0.12900
C1563       C  0.87219177  0.05614671  0.48270248     0.19300
C1564       C  0.88392972  0.03226242  0.49261648    -0.09900
C1565       C  0.88355196  0.03244854  0.51180011    -0.10700
C1566       C  0.87143372  0.05651175  0.52119481     0.20800
C1567       C  0.85972139  0.08047323  0.51128728    -0.12700
C1568       C  0.86009963  0.08028776  0.49209321    -0.11000
C1569       C  0.87096667  0.05637380  0.54096123     0.01800
C1570       C  0.87069157  0.05569977  0.55750841    -0.31000
C1571       C  0.87247698  0.05570163  0.46293206     0.03200
C1572       C  0.87261036  0.05516071  0.44638063    -0.32700
H1573       H  0.89333059  0.01346069  0.48552277     0.14200
H1574       H  0.89266687  0.01378632  0.51930099     0.14000
H1575       H  0.85028457  0.09919778  0.51838752     0.13900
H1576       H  0.85094923  0.09887376  0.48458603     0.12900
C1577       C  0.86544155  0.83785107  0.62617878     0.19300
C1578       C  0.86479656  0.82086498  0.64342121    -0.09900
C1579       C  0.86875624  0.78330549  0.64508152    -0.10700
C1580       C  0.87345809  0.76265606  0.62951236     0.20800
C1581       C  0.87403600  0.77962566  0.61227142    -0.12700
C1582       C  0.87007549  0.81716160  0.61061159    -0.11000
C1583       C  0.87685750  0.72376625  0.63101171     0.01800
C1584       C  0.87822155  0.69073063  0.63125013    -0.31000
C1585       C  0.86245988  0.87686385  0.62464255     0.03200
C1586       C  0.86171135  0.90995902  0.62409672    -0.32700
H1587       H  0.86137250  0.83669396  0.65557005     0.14200
H1588       H  0.86813014  0.77039079  0.65845653     0.14000
H1589       H  0.87751732  0.76383242  0.60012588     0.13900
H1590       H  0.87075875  0.83008360  0.59724074     0.12900
C1591       C  0.86667052  0.33826498  0.62694836     0.19300
C1592       C  0.85898473  0.31868078  0.64173951    -0.09900
C1593       C  0.86197175  0.28073599  0.64319484    -0.10700
C1594       C  0.87271032  0.26224851  0.62989824     0.20800
C1595       C  0.88035776  0.28183049  0.61509223    -0.12700
C1596       C  0.87736996  0.31975772  0.61363623    -0.11000
C1597       C  0.87535762  0.22305347  0.63111659     0.01800
C1598       C  0.87652421  0.18997042  0.63159375    -0.31000
C1599       C  0.86424514  0.37751322  0.62577985     0.03200
C1600       C  0.86350232  0.41062504  0.62512506    -0.32700
H1601       H  0.85077364  0.33274662  0.65216310     0.14200
H1602       H  0.85590232  0.26582968  0.65464774     0.14000
H1603       H  0.88859373  0.26778562  0.60467946     0.13900
H1604       H  0.88346322  0.33466315  0.60219471     0.12900
C1605       C  0.01751931  0.99408155  0.62746757     0.19300
C1606       C  0.01188121  0.02794294  0.63489482    -0.09900
C1607       C  0.99278727  0.03834232  0.63454706    -0.10700
C1608       C  0.97922553  0.01495726  0.62674639     0.20800
C1609       C  0.98485926  0.98107497  0.61933665    -0.12700
C1610       C  0.00395463  0.97067508  0.61968417    -0.11000
C1611       C  0.95951070  0.02535000  0.62657683     0.01800
C1612       C  0.94280547  0.03248542  0.62663705    -0.31000
C1613       C  0.03724481  0.98375893  0.62758944     0.03200
C1614       C  0.05395287  0.97664430  0.62751553    -0.32700
H1615       H  0.02224212  0.04630592  0.64091637     0.14200
H1616       H  0.98860554  0.06455295  0.64036288     0.14000
H1617       H  0.97449783  0.96271507  0.61331359     0.13900
H1618       H  0.00813740  0.94446641  0.61386642     0.12900
C1619       C  0.87158139  0.99212787  0.77019130     0.19300
C1620       C  0.88734565  0.00900171  0.76204495    -0.09900
C1621       C  0.88666460  0.01998891  0.74366788    -0.10700
C1622       C  0.87020176  0.01424960  0.73332804     0.20800
C1623       C  0.85444358  0.99730299  0.74145613    -0.12700
C1624       C  0.85512435  0.98631237  0.75984312    -0.11000
C1625       C  0.86966279  0.02499380  0.71430385     0.01800
C1626       C  0.86963222  0.03256903  0.69818876    -0.31000
C1627       C  0.87214947  0.98172612  0.78926576     0.03200
C1628       C  0.87259836  0.97473836  0.80544340    -0.32700
H1629       H  0.90012869  0.01376429  0.76991067     0.14200
H1630       H  0.89896510  0.03291897  0.73752334     0.14000
H1631       H  0.84165952  0.99257292  0.73358743     0.13900
H1632       H  0.84282202  0.97340869  0.76599697     0.12900
C1633       C  0.36912111  0.80113701  0.47864151     0.19300
C1634       C  0.37505739  0.77012651  0.48849987    -0.09900
C1635       C  0.37505683  0.77067974  0.50767939    -0.10700
C1636       C  0.36912116  0.80224442  0.51711083     0.20800
C1637       C  0.36314912  0.83324624  0.50725659    -0.12700
C1638       C  0.36314983  0.83269283  0.48806832    -0.11000
C1639       C  0.36925075  0.80279146  0.53686505     0.01800
C1640       C  0.36952760  0.80278003  0.55340644    -0.31000
C1641       C  0.36926641  0.80062663  0.45888761     0.03200
C1642       C  0.36951030  0.80024547  0.44234683    -0.32700
H1643       H  0.37971328  0.74558074  0.48136633     0.14200
H1644       H  0.37970967  0.74655080  0.51514752     0.14000
H1645       H  0.35853360  0.85781468  0.51439528     0.13900
H1646       H  0.35853781  0.85684361  0.48059437     0.12900
C1647       C  0.23122749  0.89669648  0.62744271     0.19300
C1648       C  0.23959603  0.88611168  0.61082306    -0.09900
C1649       C  0.25668737  0.86659085  0.61079898    -0.10700
C1650       C  0.26548741  0.85739938  0.62739197     0.20800
C1651       C  0.25713236  0.86799233  0.64402102    -0.12700
C1652       C  0.24002555  0.88752029  0.64404538    -0.11000
C1653       C  0.28350559  0.83869998  0.62727389     0.01800
C1654       C  0.29928868  0.82594977  0.62671411    -0.31000
C1655       C  0.21323671  0.91551492  0.62742445     0.03200
C1656       C  0.19751902  0.92861002  0.62708028    -0.32700
H1657       H  0.23288189  0.89283522  0.59790475     0.14200
H1658       H  0.26307699  0.85880254  0.59784790     0.14000
H1659       H  0.26386713  0.86129614  0.65693144     0.13900
H1660       H  0.23363815  0.89534853  0.65699004     0.12900
C1661       C  0.37102870  0.30467543  0.47661246     0.19300
C1662       C  0.35396901  0.30746035  0.48637347    -0.09900
C1663       C  0.35408808  0.30780629  0.50555891    -0.10700
C1664       C  0.37126854  0.30537263  0.51510012     0.20800
C1665       C  0.38834434  0.30279172  0.50534381    -0.12700
C1666       C  0.38822544  0.30244639  0.48615162    -0.11000
C1667       C  0.37134293  0.30508043  0.53486377     0.01800
C1668       C  0.37136316  0.30443553  0.55140859    -0.31000
C1669       C  0.37085473  0.30382222  0.45684861     0.03200
C1670       C  0.37065602  0.30296572  0.44030367    -0.32700
H1671       H  0.34058661  0.30921245  0.47915916     0.14200
H1672       H  0.34079617  0.30980431  0.51294463     0.14000
H1673       H  0.40171832  0.30088631  0.51256434     0.13900
H1674       H  0.40150979  0.30029607  0.47876407     0.12900
C1675       C  0.36883631  0.58720395  0.62457261     0.19300
C1676       C  0.36565701  0.56854136  0.64110202    -0.09900
C1677       C  0.36915484  0.53073573  0.64229864    -0.10700
C1678       C  0.37591612  0.51148764  0.62698867     0.20800
C1679       C  0.37915299  0.53018100  0.61047848    -0.12700
C1680       C  0.37565385  0.56797140  0.60928148    -0.11000
C1681       C  0.37857490  0.47229014  0.62788560     0.01800
C1682       C  0.37935237  0.43917055  0.62772692    -0.31000
C1683       C  0.36575197  0.62626635  0.62347647     0.03200
C1684       C  0.36445229  0.65930145  0.62281420    -0.32700
H1685       H  0.36049114  0.58319963  0.65303896     0.14200
H1686       H  0.36647276  0.51649638  0.65509106     0.14000
H1687       H  0.38424855  0.51550636  0.59851695     0.13900
H1688       H  0.37826531  0.58217408  0.59646463     0.12900
C1689       C  0.36658943  0.08751699  0.62292724     0.19300
C1690       C  0.36587652  0.07055435  0.64017244    -0.09900
C1691       C  0.36931325  0.03278361  0.64178860    -0.10700
C1692       C  0.37355008  0.01189067  0.62617151     0.20800
C1693       C  0.37422032  0.02885577  0.60893363    -0.12700
C1694       C  0.37078227  0.06659313  0.60731818    -0.11000
C1695       C  0.37645856  0.97283131  0.62762909     0.01800
C1696       C  0.37757735  0.93975247  0.62787366    -0.31000
C1697       C  0.36386318  0.12660846  0.62135093     0.03200
C1698       C  0.36298371  0.15966009  0.62036235    -0.32700
H1699       H  0.36275662  0.08653640  0.65234704     0.14200
H1700       H  0.36863079  0.01988842  0.65516865     0.14000
H1701       H  0.37735538  0.01289798  0.59675358     0.13900
H1702       H  0.37147996  0.07947116  0.59393442     0.12900
C1703       C  0.23170364  0.39942503  0.62281772     0.19300
C1704       C  0.23225738  0.36133963  0.61973819    -0.09900
C1705       C  0.24957771  0.34255991  0.61991940    -0.10700
C1706       C  0.26644416  0.36177440  0.62320848     0.20800
C1707       C  0.26589941  0.39988673  0.62617898    -0.12700
C1708       C  0.24858328  0.41866143  0.62599970    -0.11000
C1709       C  0.28436894  0.34273917  0.62336556     0.01800
C1710       C  0.30007050  0.32956878  0.62324787    -0.31000
C1711       C  0.21374577  0.41834877  0.62320158     0.03200
C1712       C  0.19806585  0.43154752  0.62397343    -0.32700
H1713       H  0.21928635  0.34613659  0.61730223     0.14200
H1714       H  0.24981203  0.31314802  0.61754718     0.14000
H1715       H  0.27886321  0.41507255  0.62867813     0.13900
H1716       H  0.24834715  0.44805162  0.62843712     0.12900
C1717       C  0.37164776  0.70367740  0.01713348     0.19300
C1718       C  0.38222732  0.73016163  0.00760288    -0.09900
C1719       C  0.38251537  0.73016270  0.98840711    -0.10700
C1720       C  0.37222951  0.70367250  0.97861264     0.20800
C1721       C  0.36164890  0.67718989  0.98814113    -0.12700
C1722       C  0.36136081  0.67718872  0.00733845    -0.11000
C1723       C  0.37245429  0.70378181  0.95882714     0.01800
C1724       C  0.37251754  0.70409504  0.94226645    -0.31000
C1725       C  0.37137339  0.70368378  0.03692128     0.03200
C1726       C  0.37127416  0.70388277  0.05348442    -0.32700
H1727       H  0.39024064  0.75079034  0.01500460     0.14200
H1728       H  0.39073611  0.75080561  0.98121230     0.14000
H1729       H  0.35362189  0.65658529  0.98073749     0.13900
H1730       H  0.35312581  0.65656839  0.01453335     0.12900
C1731       C  0.26714572  0.65054586  0.87321954     0.19300
C1732       C  0.25337593  0.65811633  0.85991854    -0.09900
C1733       C  0.23615441  0.63899233  0.86003171    -0.10700
C1734       C  0.23262594  0.61211953  0.87340505     0.20800
C1735       C  0.24633256  0.60476756  0.88679077    -0.12700
C1736       C  0.26354995  0.62389270  0.88667962    -0.11000
C1737       C  0.21479169  0.59275453  0.87355537     0.01800
C1738       C  0.19923063  0.57896092  0.87346493    -0.31000
C1739       C  0.28529197  0.66874838  0.87261411     0.03200
C1740       C  0.30114219  0.68119367  0.87203397    -0.32700
H1741       H  0.25601179  0.67852029  0.84939816     0.14200
H1742       H  0.22561876  0.64507079  0.84966396     0.14000
H1743       H  0.24373856  0.58422192  0.89725167     0.13900
H1744       H  0.27412298  0.61767350  0.89698996     0.12900
C1745       C  0.37198815  0.76915968  0.72967393     0.19300
C1746       C  0.38772095  0.77636583  0.74082341    -0.09900
C1747       C  0.38775008  0.76504788  0.75917719    -0.10700
C1748       C  0.37206519  0.74639377  0.76648204     0.20800
C1749       C  0.35628322  0.73944147  0.75536609    -0.12700
C1750       C  0.35625307  0.75075865  0.73702129    -0.11000
C1751       C  0.37209148  0.73484046  0.78541022     0.01800
C1752       C  0.37224163  0.72665527  0.80145920    -0.31000
C1753       C  0.37215505  0.77954074  0.71058124     0.03200
C1754       C  0.37202452  0.78631554  0.69437148    -0.32700
H1755       H  0.39998845  0.79049236  0.73530690     0.14200
H1756       H  0.40000848  0.77073466  0.76764750     0.14000
H1757       H  0.34404121  0.72519482  0.76085851     0.13900
H1758       H  0.34401928  0.74495011  0.72853744     0.12900
C1759       C  0.37357622  0.20538376  0.01499330     0.19300
C1760       C  0.38617514  0.18284223  0.00524973    -0.09900
C1761       C  0.38596504  0.18266096  0.98605662    -0.10700
C1762       C  0.37315265  0.20501666  0.97650019     0.20800
C1763       C  0.36058197  0.22760041  0.98624481    -0.12700
C1764       C  0.36079201  0.22778190  0.00543176    -0.11000
C1765       C  0.37289150  0.20481738  0.95673335     0.01800
C1766       C  0.37265442  0.20485065  0.94018431    -0.31000
C1767       C  0.37371729  0.20548164  0.03476483     0.03200
C1768       C  0.37373779  0.20563625  0.05131804    -0.32700
H1769       H  0.39612898  0.16541100  0.01248035     0.14200
H1770       H  0.39576366  0.16510039  0.97868109     0.14000
H1771       H  0.35062125  0.24502260  0.97901694     0.13900
H1772       H  0.35098601  0.24533456  0.01280262     0.12900
C1773       C  0.37406012  0.99596939  0.87066008     0.19300
C1774       C  0.36759548  0.97565595  0.85559746    -0.09900
C1775       C  0.36403957  0.93800182  0.85741983    -0.10700
C1776       C  0.36686600  0.92057034  0.87432778     0.20800
C1777       C  0.37323896  0.94091597  0.88941735    -0.12700
C1778       C  0.37679348  0.97858174  0.88759509    -0.11000
C1779       C  0.36432959  0.88146947  0.87584497     0.01800
C1780       C  0.36382414  0.84836609  0.87617452    -0.31000
C1781       C  0.37727449  0.03485090  0.86891174     0.03200
C1782       C  0.37874673  0.06779823  0.86792079    -0.32700
H1783       H  0.36533050  0.98890226  0.84247024     0.14200
H1784       H  0.35925889  0.92243262  0.84563050     0.14000
H1785       H  0.37561251  0.92761933  0.90251304     0.13900
H1786       H  0.38168242  0.99411515  0.89935354     0.12900
C1787       C  0.37528576  0.49643620  0.87053322     0.19300
C1788       C  0.37808803  0.47817017  0.88723621    -0.09900
C1789       C  0.37502153  0.44021059  0.88848037    -0.10700
C1790       C  0.36907056  0.42040753  0.87304040     0.20800
C1791       C  0.36631078  0.43867821  0.85634138    -0.12700
C1792       C  0.36937833  0.47660554  0.85509731    -0.11000
C1793       C  0.36652097  0.38116902  0.87405988     0.01800
C1794       C  0.36563601  0.34804311  0.87402156    -0.31000
C1795       C  0.37781146  0.53566552  0.86938226     0.03200
C1796       C  0.37880410  0.56875754  0.86876245    -0.32700
H1797       H  0.38257700  0.49326988  0.89928096     0.14200
H1798       H  0.37733327  0.42632003  0.90142937     0.14000
H1799       H  0.36184515  0.42359046  0.84428464     0.13900
H1800       H  0.36708972  0.49046866  0.84213649     0.12900
C1801       C  0.23319434  0.11042608  0.87100371     0.19300
C1802       C  0.24748801  0.09946728  0.85882660    -0.09900
C1803       C  0.26479702  0.11828422  0.85845119    -0.10700
C1804       C  0.26789824  0.14821389  0.87021101     0.20800
C1805       C  0.25361288  0.15913371  0.88240415    -0.12700
C1806       C  0.23630724  0.14031923  0.88278004    -0.11000
C1807       C  0.28591484  0.16694894  0.87003359     0.01800
C1808       C  0.30163626  0.18004321  0.86973150    -0.31000
C1809       C  0.21515481  0.09178302  0.87117328     0.03200
C1810       C  0.19941216  0.07880929  0.87162587    -0.32700
H1811       H  0.24524096  0.07650176  0.84962010     0.14200
H1812       H  0.27577163  0.10946499  0.84901645     0.14000
H1813       H  0.25585889  0.18209259  0.89161528     0.13900
H1814       H  0.22533582  0.14913435  0.89221944     0.12900
C1815       C  0.37319589  0.23800086  0.76377888     0.19300
C1816       C  0.39035365  0.24293424  0.75438117    -0.09900
C1817       C  0.39031596  0.25380243  0.73596130    -0.10700
C1818       C  0.37311770  0.25987408  0.72684678     0.20800
C1819       C  0.35596838  0.25461680  0.73620392    -0.12700
C1820       C  0.35600609  0.24375354  0.75461311    -0.11000
C1821       C  0.37300665  0.27126941  0.70790066     0.01800
C1822       C  0.37256297  0.27980810  0.69190567    -0.31000
C1823       C  0.37322364  0.22831299  0.78295558     0.03200
C1824       C  0.37326787  0.22193578  0.79920196    -0.32700
H1825       H  0.40373905  0.23867132  0.76132633     0.14200
H1826       H  0.40366956  0.25763990  0.72886693     0.14000
H1827       H  0.34258010  0.25908979  0.72929680     0.13900
H1828       H  0.34265017  0.24013248  0.76173267     0.12900
C1829       C  0.62882946  0.70351856  0.48104400     0.19300
C1830       C  0.61315037  0.68975199  0.49066071    -0.09900
C1831       C  0.61321298  0.68916172  0.50984636    -0.10700
C1832       C  0.62895521  0.70233077  0.51953474     0.20800
C1833       C  0.64467840  0.71593437  0.50991985    -0.12700
C1834       C  0.64461592  0.71652425  0.49072755    -0.11000
C1835       C  0.62884098  0.70236686  0.53930482     0.01800
C1836       C  0.62854976  0.70285795  0.55585299    -0.31000
C1837       C  0.62866221  0.70445256  0.46128005     0.03200
C1838       C  0.62842057  0.70519081  0.44473409    -0.32700
H1839       H  0.60086586  0.67960793  0.48333492     0.14200
H1840       H  0.60096848  0.67860439  0.51711890     0.14000
H1841       H  0.65692880  0.72621839  0.51725085     0.13900
H1842       H  0.65682622  0.72722108  0.48345207     0.12900
C1843       C  0.76626415  0.61177702  0.62798837     0.19300
C1844       C  0.75824941  0.62350664  0.64457923    -0.09900
C1845       C  0.74104251  0.64265023  0.64460498    -0.10700
C1846       C  0.73180692  0.65028246  0.62803764     0.20800
C1847       C  0.73989086  0.63877771  0.61144193    -0.12700
C1848       C  0.75709138  0.61963634  0.61141646    -0.11000
C1849       C  0.71359165  0.66816145  0.62810241     0.01800
C1850       C  0.69769685  0.68036685  0.62810141    -0.31000
C1851       C  0.78422092  0.59292706  0.62790658     0.03200
C1852       C  0.79990465  0.57973972  0.62759490    -0.32700
H1853       H  0.76528486  0.61784446  0.65746161     0.14200
H1854       H  0.73487509  0.65123594  0.65753168     0.14000
H1855       H  0.73283203  0.64434461  0.59856048     0.13900
H1856       H  0.76322769  0.61095940  0.59849080     0.12900
C1857       C  0.47960833  0.76601138  0.62280736     0.19300
C1858       C  0.48551911  0.73435228  0.61342179    -0.09900
C1859       C  0.50458322  0.72374894  0.61376982    -0.10700
C1860       C  0.51782819  0.74474109  0.62352363     0.20800
C1861       C  0.51192598  0.77647448  0.63284554    -0.12700
C1862       C  0.49286752  0.78707421  0.63249791    -0.11000
C1863       C  0.53748715  0.73403938  0.62388704     0.01800
C1864       C  0.55415996  0.72672082  0.62431548    -0.31000
C1865       C  0.45989009  0.77631057  0.62282526     0.03200
C1866       C  0.44317531  0.78329942  0.62299202    -0.32700
H1867       H  0.47538334  0.71779735  0.60591420     0.14200
H1868       H  0.50897876  0.69921630  0.60648122     0.14000
H1869       H  0.52204806  0.79297024  0.64040290     0.13900
H1870       H  0.48846499  0.81154239  0.63983631     0.12900
C1871       C  0.62744824  0.20261863  0.48025714     0.19300
C1872       C  0.64247643  0.21816602  0.49013006    -0.09900
C1873       C  0.64223972  0.21786417  0.50931720    -0.10700
C1874       C  0.62697393  0.20201724  0.51875911     0.20800
C1875       C  0.61195966  0.18637717  0.50889255    -0.12700
C1876       C  0.61219655  0.18667852  0.48969565    -0.11000
C1877       C  0.62668656  0.20210103  0.53853181     0.01800
C1878       C  0.62659591  0.20266111  0.55508342    -0.31000
C1879       C  0.62764961  0.20318973  0.46048203     0.03200
C1880       C  0.62777500  0.20380317  0.44392835    -0.32700
H1881       H  0.65434365  0.23057766  0.48300142     0.14200
H1882       H  0.65392543  0.23005783  0.51678397     0.14000
H1883       H  0.60007164  0.17405712  0.51602810     0.13900
H1884       H  0.60048964  0.17457538  0.48222427     0.12900
C1885       C  0.63188283  0.92026521  0.62245041     0.19300
C1886       C  0.63269608  0.93755989  0.63959928    -0.09900
C1887       C  0.62920536  0.97530377  0.64107844    -0.10700
C1888       C  0.62482029  0.99590352  0.62542174     0.20800
C1889       C  0.62411246  0.97866153  0.60824636    -0.12700
C1890       C  0.62760049  0.94088546  0.60676678    -0.11000
C1891       C  0.62162706  0.03488385  0.62690411     0.01800
C1892       C  0.62014936  0.06786958  0.62780779    -0.31000
C1893       C  0.63440347  0.88108167  0.62119730     0.03200
C1894       C  0.63498756  0.84795203  0.62116892    -0.32700
H1895       H  0.63586494  0.92181210  0.65183119     0.14200
H1896       H  0.62989868  0.98839775  0.65440852     0.14000
H1897       H  0.62084322  0.99439038  0.59603416     0.13900
H1898       H  0.62680585  0.92773248  0.59345711     0.12900
C1899       C  0.62336950  0.49610423  0.62544247     0.19300
C1900       C  0.63549135  0.47815479  0.63773363    -0.09900
C1901       C  0.63889628  0.44042533  0.63594962    -0.10700
C1902       C  0.63024986  0.42046338  0.62182295     0.20800
C1903       C  0.61815688  0.43840949  0.60948777    -0.12700
C1904       C  0.61475248  0.47617878  0.61127045    -0.11000
C1905       C  0.63297997  0.38129127  0.62062250     0.01800
C1906       C  0.63389213  0.34816890  0.62062433    -0.31000
C1907       C  0.62035139  0.53514533  0.62706009     0.03200
C1908       C  0.61918745  0.56817813  0.62811407    -0.32700
H1909       H  0.64230911  0.49332717  0.64868170     0.14200
H1910       H  0.64815168  0.42678472  0.64564803     0.14000
H1911       H  0.61127681  0.42318090  0.59859615     0.13900
H1912       H  0.60543339  0.48981134  0.60162695     0.12900
C1913       C  0.76570585  0.11064040  0.62550021     0.19300
C1914       C  0.76536989  0.14917173  0.62447915    -0.09900
C1915       C  0.74807050  0.16799086  0.62430087    -0.10700
C1916       C  0.73101745  0.14834294  0.62514351     0.20800
C1917       C  0.73135555  0.10980709  0.62608707    -0.12700
C1918       C  0.74865167  0.09099207  0.62626798    -0.11000
C1919       C  0.71312536  0.16742558  0.62521454     0.01800
C1920       C  0.69742102  0.18052333  0.62550456    -0.31000
C1921       C  0.78359064  0.09156584  0.62602698     0.03200
C1922       C  0.79923831  0.07827882  0.62670472    -0.32700
H1923       H  0.77848524  0.16466303  0.62390534     0.14200
H1924       H  0.74799297  0.19775266  0.62358103     0.14000
H1925       H  0.71824333  0.09432066  0.62675686     0.13900
H1926       H  0.74872832  0.06123953  0.62708579     0.12900
C1927       C  0.51786772  0.24462526  0.62268307     0.19300
C1928       C  0.50850567  0.25531881  0.63876871    -0.09900
C1929       C  0.48952820  0.26626906  0.63811179    -0.10700
C1930       C  0.47984195  0.26664508  0.62136153     0.20800
C1931       C  0.48923419  0.25619274  0.60524558    -0.12700
C1932       C  0.50822537  0.24524060  0.60590261    -0.11000
C1933       C  0.46010271  0.27643964  0.62087074     0.01800
C1934       C  0.44335090  0.28286479  0.62087685    -0.31000
C1935       C  0.53744121  0.23367352  0.62337563     0.03200
C1936       C  0.55404949  0.22606644  0.62400182    -0.32700
H1937       H  0.51585694  0.25510660  0.65180380     0.14200
H1938       H  0.48237823  0.27418101  0.65065752     0.14000
H1939       H  0.48185287  0.25626896  0.59222670     0.13900
H1940       H  0.51536200  0.23718834  0.59337233     0.12900
C1941       C  0.62821317  0.80157843  0.01977722     0.19300
C1942       C  0.62387243  0.83399473  0.01024445    -0.09900
C1943       C  0.62382729  0.83428063  0.99104146    -0.10700
C1944       C  0.62811966  0.80214869  0.98124069     0.20800
C1945       C  0.63246039  0.76974021  0.99077787    -0.12700
C1946       C  0.63250543  0.76945458  0.00997716    -0.11000
C1947       C  0.62803596  0.80237890  0.96144236     0.01800
C1948       C  0.62794874  0.80237563  0.94487316    -0.31000
C1949       C  0.62823233  0.80125217  0.03957027     0.03200
C1950       C  0.62818601  0.80096177  0.05613507    -0.32700
H1951       H  0.62052042  0.85901005  0.01764740     0.14200
H1952       H  0.62044097  0.85951264  0.98384794     0.14000
H1953       H  0.63579675  0.74471284  0.98337857     0.13900
H1954       H  0.63587567  0.74421323  0.01717001     0.12900
C1955       C  0.76726376  0.90142248  0.87486078     0.19300
C1956       C  0.75864578  0.89345879  0.85801521    -0.09900
C1957       C  0.74164799  0.87362890  0.85750271    -0.10700
C1958       C  0.73321404  0.86151749  0.87382814     0.20800
C1959       C  0.74179998  0.86959477  0.89067537    -0.12700
C1960       C  0.75879527  0.88942295  0.89118788    -0.11000
C1961       C  0.71535294  0.84227731  0.87337997     0.01800
C1962       C  0.69967590  0.82899299  0.87340656    -0.31000
C1963       C  0.78525007  0.92020225  0.87531692     0.03200
C1964       C  0.80101967  0.93305357  0.87540987    -0.32700
H1965       H  0.76511699  0.90237879  0.84529683     0.14200
H1966       H  0.73507375  0.86780993  0.84439907     0.14000
H1967       H  0.73534319  0.86063596  0.90339398     0.13900
H1968       H  0.76538097  0.89520064  0.90429085     0.12900
C1969       C  0.48149224  0.74307417  0.87287613     0.19300
C1970       C  0.49383092  0.72968384  0.85936352    -0.09900
C1971       C  0.51288296  0.74044202  0.85928505    -0.10700
C1972       C  0.51968834  0.76470500  0.87269549     0.20800
C1973       C  0.50734490  0.77809835  0.88619516    -0.12700
C1974       C  0.48830155  0.76734315  0.88627427    -0.11000
C1975       C  0.53938777  0.77523218  0.87281119     0.01800
C1976       C  0.55606434  0.78261550  0.87304397    -0.31000
C1977       C  0.46177907  0.73263915  0.87281165     0.03200
C1978       C  0.44505569  0.72564795  0.87272992    -0.32700
H1979       H  0.48872527  0.71101305  0.84889342     0.14200
H1980       H  0.52229928  0.72981729  0.84880654     0.14000
H1981       H  0.51244333  0.79678148  0.89666292     0.13900
H1982       H  0.47888850  0.77798454  0.89675115     0.12900
C1983       C  0.62770603  0.74565454  0.73162784     0.19300
C1984       C  0.64497715  0.74903645  0.74096377    -0.09900
C1985       C  0.64525466  0.76057164  0.75928923    -0.10700
C1986       C  0.62826889  0.76889045  0.76838945     0.20800
C1987       C  0.61101259  0.76564459  0.75902678    -0.12700
C1988       C  0.61073515  0.75411308  0.74070991    -0.11000
C1989       C  0.62849836  0.77969597  0.78744290     0.01800
C1990       C  0.62868512  0.78702325  0.80360448    -0.31000
C1991       C  0.62737300  0.73416041  0.71267680     0.03200
C1992       C  0.62686727  0.72603147  0.69661805    -0.32700
H1993       H  0.65820609  0.74273174  0.73409281     0.14200
H1994       H  0.65868747  0.76284345  0.76637704     0.14000
H1995       H  0.59777692  0.77186439  0.76590507     0.13900
H1996       H  0.59729637  0.75176144  0.73363986     0.12900
C1997       C  0.62840404  0.30379306  0.01862631     0.19300
C1998       C  0.61147589  0.29696217  0.00918735    -0.09900
C1999       C  0.61114276  0.29784043  0.99000667    -0.10700
C2000       C  0.62773704  0.30556858  0.98015240     0.20800
C2001       C  0.64467435  0.31233722  0.98959064    -0.12700
C2002       C  0.64500746  0.31145906  0.00877403    -0.11000
C2003       C  0.62742258  0.30627127  0.96038990     0.01800
C2004       C  0.62726080  0.30632363  0.94383991    -0.31000
C2005       C  0.62869539  0.30306335  0.03838601     0.03200
C2006       C  0.62874636  0.30252234  0.05493244    -0.32700
H2007       H  0.59855027  0.29098861  0.01664917     0.14200
H2008       H  0.59797048  0.29248901  0.98287114     0.14000
H2009       H  0.65760384  0.31827081  0.98212734     0.13900
H2010       H  0.65818266  0.31677016  0.01591161     0.12900
C2011       C  0.62334717  0.51283334  0.86719217     0.19300
C2012       C  0.60929610  0.53575414  0.87452050    -0.09900
C2013       C  0.61254659  0.57358680  0.87611290    -0.10700
C2014       C  0.62987850  0.58865071  0.87043577     0.20800
C2015       C  0.64382647  0.56581052  0.86286809    -0.12700
C2016       C  0.64057412  0.52797755  0.86127119    -0.11000
C2017       C  0.63321412  0.62753566  0.87233910     0.01800
C2018       C  0.63474816  0.66044822  0.87377334    -0.31000
C2019       C  0.62062386  0.47359161  0.86672102     0.03200
C2020       C  0.61983674  0.44046945  0.86726629    -0.32700
H2021       H  0.59596443  0.52433304  0.87922652     0.14200
H2022       H  0.60162719  0.59103459  0.88191244     0.14000
H2023       H  0.65724373  0.57717669  0.85836220     0.13900
H2024       H  0.65157815  0.51047329  0.85566728     0.12900
C2025       C  0.62546798  0.01292070  0.87170225     0.19300
C2026       C  0.61921072  0.03643180  0.85775770    -0.09900
C2027       C  0.62265907  0.07425875  0.85894257    -0.10700
C2028       C  0.63241814  0.08871273  0.87404736     0.20800
C2029       C  0.63871172  0.06519274  0.88796999    -0.12700
C2030       C  0.63526494  0.02737424  0.88678514    -0.11000
C2031       C  0.63536886  0.12778168  0.87545177     0.01800
C2032       C  0.63638601  0.16085526  0.87613328    -0.31000
C2033       C  0.62228059  0.97388587  0.87047159     0.03200
C2034       C  0.62105221  0.94080391  0.87029212    -0.32700
H2035       H  0.61168785  0.02554675  0.84600069     0.14200
H2036       H  0.61765622  0.09224405  0.84813883     0.14000
H2037       H  0.64619601  0.07608512  0.89974908     0.13900
H2038       H  0.64023215  0.00940644  0.89761242     0.12900
C2039       C  0.76816081  0.39841878  0.87197483     0.19300
C2040       C  0.75268985  0.41292880  0.88160309    -0.09900
C2041       C  0.73534933  0.39425331  0.88170903    -0.10700
C2042       C  0.73336527  0.36092582  0.87221897     0.20800
C2043       C  0.74883391  0.34638371  0.86257781    -0.12700
C2044       C  0.76619110  0.36507429  0.86247364    -0.11000
C2045       C  0.71531530  0.34231997  0.87217088     0.01800
C2046       C  0.69950176  0.32965542  0.87244443    -0.31000
C2047       C  0.78617307  0.41716487  0.87216580     0.03200
C2048       C  0.80184113  0.43050238  0.87233942    -0.32700
H2049       H  0.75404197  0.43857855  0.88904598     0.14200
H2050       H  0.72347207  0.40583108  0.88917339     0.14000
H2051       H  0.74747355  0.32071749  0.85515030     0.13900
H2052       H  0.77808003  0.35349895  0.85502636     0.12900
C2053       C  0.48176320  0.24031361  0.87165964     0.19300
C2054       C  0.49453326  0.22389393  0.85942446    -0.09900
C2055       C  0.51359390  0.23449463  0.85941566    -0.10700
C2056       C  0.51994812  0.26160372  0.87161919     0.20800
C2057       C  0.50718987  0.27790276  0.88389971    -0.12700
C2058       C  0.48813811  0.26730464  0.88390947    -0.11000
C2059       C  0.53958256  0.27233288  0.87169320     0.01800
C2060       C  0.55618705  0.28013775  0.87192025    -0.31000
C2061       C  0.46203968  0.23026385  0.87136397     0.03200
C2062       C  0.44530462  0.22363477  0.87104242    -0.32700
H2063       H  0.48974566  0.20306963  0.84986017     0.14200
H2064       H  0.52335258  0.22162728  0.84989866     0.14000
H2065       H  0.51195990  0.29880386  0.89343069     0.13900
H2066       H  0.47837271  0.28025210  0.89339372     0.12900
C2067       C  0.62791627  0.26433799  0.76805084     0.19300
C2068       C  0.64463041  0.25273658  0.75940030    -0.09900
C2069       C  0.64430135  0.24162078  0.74102575    -0.10700
C2070       C  0.62724649  0.24196448  0.73119686     0.20800
C2071       C  0.61052729  0.25353692  0.73985274    -0.12700
C2072       C  0.61085648  0.26465313  0.75822820    -0.11000
C2073       C  0.62696502  0.23134051  0.71214141     0.01800
C2074       C  0.62664050  0.22406391  0.69598965    -0.31000
C2075       C  0.62822900  0.27522375  0.78706661     0.03200
C2076       C  0.62853735  0.28298056  0.80316130    -0.32700
H2077       H  0.65789723  0.25226076  0.76685767     0.14200
H2078       H  0.65733371  0.23286564  0.73447920     0.14000
H2079       H  0.59726488  0.25405746  0.73238914     0.13900
H2080       H  0.59782868  0.27345316  0.76476937     0.12900
loop_ 
_geom_bond_atom_site_label_1 
_geom_bond_atom_site_label_2 
_geom_bond_distance 
_geom_bond_site_symmetry_2 
_ccdc_geom_bond_type 
Zn1           O5   1.958       .  S
Zn1           O6   2.019       .  S
Zn1          O10   2.006       .  S
Zn1          O17   2.009       .  S
Zn2           O5   1.956       .  S
Zn2           O7   2.009       .  S
Zn2           O9   2.024       .  S
Zn2          O13   2.006       .  S
Zn3           O5   1.969       .  S
Zn3           O8   2.024       .  S
Zn3          O11   2.033       .  S
Zn3          O14   2.018       .  S
Zn4           O5   1.971       .  S
Zn4          O12   2.026       .  S
Zn4          O15   2.030       .  S
Zn4          O16   2.025       .  S
O6           C18   1.272       .  A
O7           C19   1.271       .  A
O8           C20   1.273       .  A
O9           C18   1.272       .  A
O10          C20   1.271       .  A
O11          C19   1.274       .  A
O12          C21   1.273       .  A
O13          C22   1.271       .  A
O14          C21   1.272       .  A
O15          C22   1.274       .  A
O16          C23   1.273       .  A
O17          C23   1.271       .  A
C18        C2004   1.437       .  S
C19        C2046   1.437       .  S
C20        C2032   1.433       .  S
C21        C2076   1.438       .  S
C22        C2020   1.435       .  S
C23        C2060   1.435       .  S
Zn24         O28   1.959       .  S
Zn24         O29   2.008       .  S
Zn24         O33   2.013       .  S
Zn24         O40   2.027       .  S
Zn25         O28   1.971       .  S
Zn25         O30   2.018       .  S
Zn25         O32   2.025       .  S
Zn25         O36   2.037       .  S
Zn26         O28   1.973       .  S
Zn26         O31   2.029       .  S
Zn26         O34   2.032       .  S
Zn26         O37   2.033       .  S
Zn27         O28   1.955       .  S
Zn27         O35   2.001       .  S
Zn27         O38   2.004       .  S
Zn27         O39   2.023       .  S
O29          C41   1.271       .  A
O30          C42   1.272       .  A
O31          C43   1.273       .  A
O32          C41   1.273       .  A
O33          C43   1.271       .  A
O34          C42   1.273       .  A
O35          C44   1.270       .  A
O36          C45   1.274       .  A
O37          C44   1.274       .  A
O38          C45   1.270       .  A
O39          C46   1.272       .  A
O40          C46   1.273       .  A
C41        C2018   1.434       .  S
C42        C1990   1.440       .  S
C43        C1976   1.437       .  S
C44        C2034   1.434       .  S
C45        C1962   1.436       .  S
C46        C1948   1.440       .  S
Zn47         O51   1.967       .  S
Zn47         O52   2.024       .  S
Zn47         O56   2.019       .  S
Zn47         O63   2.021       .  S
Zn48         O51   1.952       .  S
Zn48         O53   2.014       .  S
Zn48         O55   2.007       .  S
Zn48         O59   1.999       .  S
Zn49         O51   1.961       .  S
Zn49         O54   2.013       .  S
Zn49         O57   2.031       .  S
Zn49         O60   2.006       .  S
Zn50         O51   1.972       .  S
Zn50         O58   2.030       .  S
Zn50         O61   2.033       .  S
Zn50         O62   2.023       .  S
O52          C64   1.273       .  A
O53          C65   1.271       .  A
O54          C66   1.272       .  A
O55          C64   1.271       .  A
O56          C66   1.272       .  A
O57          C65   1.273       .  A
O58          C67   1.274       .  A
O59          C68   1.270       .  A
O60          C67   1.271       .  A
O61          C68   1.274       .  A
O62          C69   1.272       .  A
O63          C69   1.272       .  A
C64        C1936   1.434       .  S
C65        C2074   1.438       .  S
C66        C1892   1.434       .  S
C67        C1920   1.435       .  S
C68        C1906   1.434       .  S
C69        C1878   1.438       .  S
Zn70         O74   1.953       .  S
Zn70         O75   2.014       .  S
Zn70         O79   2.012       .  S
Zn70         O86   1.999       .  S
Zn71         O74   1.962       .  S
Zn71         O76   2.018       .  S
Zn71         O78   2.034       .  S
Zn71         O82   2.009       .  S
Zn72         O74   1.966       .  S
Zn72         O77   2.028       .  S
Zn72         O80   2.019       .  S
Zn72         O83   2.023       .  S
Zn73         O74   1.972       .  S
Zn73         O81   2.021       .  S
Zn73         O84   2.027       .  S
Zn73         O85   2.028       .  S
O75          C87   1.271       .  A
O76          C88   1.273       .  A
O77          C89   1.273       .  A
O78          C87   1.274       .  A
O79          C89   1.271       .  A
O80          C88   1.273       .  A
O81          C90   1.272       .  A
O82          C91   1.271       .  A
O83          C90   1.272       .  A
O84          C91   1.273       .  A
O85          C92   1.273       .  A
O86          C92   1.270       .  A
C87        C1992   1.439       .  S
C88        C1908   1.435       .  S
C89        C1864   1.436       .  S
C90        C1836   1.438       .  S
C91        C1850   1.435       .  S
C92        C1894   1.433       .  S
Zn93         O97   1.953       .  S
Zn93         O98   2.015       .  S
Zn93        O102   2.009       .  S
Zn93        O109   2.000       .  S
Zn94         O97   1.960       .  S
Zn94         O99   2.009       .  S
Zn94        O101   2.028       .  S
Zn94        O105   2.007       .  S
Zn95         O97   1.966       .  S
Zn95        O100   2.023       .  S
Zn95        O103   2.016       .  S
Zn95        O106   2.019       .  S
Zn96         O97   1.972       .  S
Zn96        O104   2.024       .  S
Zn96        O107   2.035       .  S
Zn96        O108   2.033       .  S
O98         C110   1.271       .  A
O99         C111   1.271       .  A
O100        C112   1.272       .  A
O101        C110   1.273       .  A
O102        C112   1.271       .  A
O103        C111   1.272       .  A
O104        C113   1.272       .  A
O105        C114   1.271       .  A
O106        C113   1.272       .  A
O107        C114   1.274       .  A
O108        C115   1.274       .  A
O109        C115   1.270       .  A
C110       C1824   1.438       .  S
C111       C1782   1.432       .  S
C112       C2062   1.434       .  S
C113       C1766   1.437       .  S
C114       C1808   1.437       .  S
C115       C1794   1.434       .  S
Zn116       O120   1.952       .  S
Zn116       O121   2.010       .  S
Zn116       O125   1.996       .  S
Zn116       O132   2.010       .  S
Zn117       O120   1.967       .  S
Zn117       O122   2.026       .  S
Zn117       O124   2.031       .  S
Zn117       O128   2.020       .  S
Zn118       O120   1.971       .  S
Zn118       O123   2.027       .  S
Zn118       O126   2.022       .  S
Zn118       O129   2.029       .  S
Zn119       O120   1.963       .  S
Zn119       O127   2.013       .  S
Zn119       O130   2.016       .  S
Zn119       O131   2.035       .  S
O121        C133   1.271       .  A
O122        C134   1.273       .  A
O123        C135   1.273       .  A
O124        C133   1.273       .  A
O125        C135   1.270       .  A
O126        C134   1.272       .  A
O127        C136   1.271       .  A
O128        C137   1.273       .  A
O129        C136   1.273       .  A
O130        C137   1.273       .  A
O131        C138   1.274       .  A
O132        C138   1.270       .  A
C133       C1978   1.437       .  S
C134       C1724   1.439       .  S
C135       C1780   1.431       .  S
C136       C1740   1.437       .  S
C137       C1796   1.434       .  S
C138       C1752   1.438       .  S
Zn139       O143   1.957       .  S
Zn139       O144   2.010       .  S
Zn139       O148   2.020       .  S
Zn139       O155   2.008       .  S
Zn140       O143   1.970       .  S
Zn140       O145   2.029       .  S
Zn140       O147   2.021       .  S
Zn140       O151   2.029       .  S
Zn141       O143   1.952       .  S
Zn141       O146   2.020       .  S
Zn141       O149   2.001       .  S
Zn141       O152   2.004       .  S
Zn142       O143   1.967       .  S
Zn142       O150   2.036       .  S
Zn142       O153   2.017       .  S
Zn142       O154   2.022       .  S
O144        C156   1.271       .  A
O145        C157   1.274       .  A
O146        C158   1.272       .  A
O147        C156   1.272       .  A
O148        C158   1.272       .  A
O149        C157   1.270       .  A
O150        C159   1.274       .  A
O151        C160   1.273       .  A
O152        C159   1.270       .  A
O153        C160   1.272       .  A
O154        C161   1.273       .  A
O155        C161   1.271       .  A
C156       C1934   1.433       .  S
C157       C1682   1.433       .  S
C158       C1668   1.437       .  S
C159       C1710   1.436       .  S
C160       C1822   1.438       .  S
C161       C1698   1.433       .  S
Zn162       O166   1.972       .  S
Zn162       O167   2.030       .  S
Zn162       O171   2.029       .  S
Zn162       O178   2.030       .  S
Zn163       O166   1.954       .  S
Zn163       O168   2.019       .  S
Zn163       O170   1.999       .  S
Zn163       O174   2.003       .  S
Zn164       O166   1.958       .  S
Zn164       O169   2.011       .  S
Zn164       O172   2.020       .  S
Zn164       O175   2.006       .  S
Zn165       O166   1.969       .  S
Zn165       O173   2.025       .  S
Zn165       O176   2.035       .  S
Zn165       O177   2.017       .  S
O167        C179   1.274       .  A
O168        C180   1.272       .  A
O169        C181   1.271       .  A
O170        C179   1.270       .  A
O171        C181   1.273       .  A
O172        C180   1.272       .  A
O173        C182   1.273       .  A
O174        C183   1.270       .  A
O175        C182   1.271       .  A
O176        C183   1.274       .  A
O177        C184   1.272       .  A
O178        C184   1.273       .  A
C179       C1696   1.433       .  S
C180       C1640   1.437       .  S
C181       C1866   1.436       .  S
C182       C1684   1.433       .  S
C183       C1654   1.436       .  S
C184       C1754   1.438       .  S
Zn185       O189   1.961       .  S
Zn185       O190   2.007       .  S
Zn185       O194   2.012       .  S
Zn185       O201   2.030       .  S
Zn186       O189   1.972       .  S
Zn186       O191   2.022       .  S
Zn186       O193   2.029       .  S
Zn186       O197   2.032   1_545  S
Zn187       O189   1.967       .  S
Zn187       O192   2.023       .  S
Zn187       O195   2.023       .  S
Zn187       O198   2.032       .  S
Zn188       O189   1.951       .  S
Zn188       O196   2.009       .  S
Zn188       O199   1.996   1_545  S
Zn188       O200   2.010       .  S
O190        C202   1.271       .  A
O191        C203   1.272       .  A
O192        C204   1.273       .  A
O193        C202   1.273       .  A
O194        C204   1.272       .  A
O195        C203   1.272       .  A
O196        C205   1.271       .  A
O197        C206   1.274       .  A
O198        C205   1.273       .  A
O199        C206   1.270       .  A
O200        C207   1.271       .  A
O201        C207   1.273       .  A
C202       C1922   1.435       .  S
C203       C1570   1.438       .  S
C204       C1598   1.434       .  S
C205       C1612   1.437       .  S
C206       C1586   1.433       .  S
C207       C1626   1.437       .  S
Zn208       O212   1.968       .  S
Zn208       O213   2.033       .  S
Zn208       O217   2.016       .  S
Zn208       O224   2.024       .  S
Zn209       O212   1.952       .  S
Zn209       O214   1.997       .  S
Zn209       O216   2.001       .  S
Zn209       O220   2.015       .  S
Zn210       O212   1.971       .  S
Zn210       O215   2.028       .  S
Zn210       O218   2.031       .  S
Zn210       O221   2.030       .  S
Zn211       O212   1.956       .  S
Zn211       O219   2.012       .  S
Zn211       O222   2.021       .  S
Zn211       O223   2.009       .  S
O213        C225   1.274       .  A
O214        C226   1.270       .  A
O215        C227   1.273       .  A
O216        C225   1.270       .  A
O217        C227   1.272       .  A
O218        C226   1.274       .  A
O219        C228   1.271       .  A
O220        C229   1.271       .  A
O221        C228   1.273       .  A
O222        C229   1.272       .  A
O223        C230   1.271       .  A
O224        C230   1.273       .  A
C225       C1852   1.435       .  S
C226       C1584   1.432       .  S
C227       C1556   1.437       .  S
C228       C1542   1.437       .  S
C229       C1528   1.436       .  S
C230       C1600   1.434       .  S
Zn231       O235   1.953       .  S
Zn231       O236   2.016       .  S
Zn231       O240   2.007       .  S
Zn231       O247   1.996       .  S
Zn232       O235   1.960       .  S
Zn232       O237   2.008       .  S
Zn232       O239   2.027       .  S
Zn232       O243   2.005       .  S
Zn233       O235   1.966       .  S
Zn233       O238   2.026       .  S
Zn233       O241   2.020       .  S
Zn233       O244   2.024       .  S
Zn234       O235   1.973       .  S
Zn234       O242   2.029       .  S
Zn234       O245   2.037       .  S
Zn234       O246   2.035       .  S
O236        C248   1.271       .  A
O237        C249   1.271       .  A
O238        C250   1.273       .  A
O239        C248   1.272       .  A
O240        C250   1.271       .  A
O241        C249   1.273       .  A
O242        C251   1.273       .  A
O243        C252   1.270       .  A
O244        C251   1.272       .  A
O245        C252   1.275       .  A
O246        C253   1.274       .  A
O247        C253   1.270       .  A
C248       C1558   1.438       .  S
C249       C1500   1.432       .  S
C250       C1514   1.434       .  S
C251       C1472   1.440       .  S
C252       C2048   1.437       .  S
C253       C1488   1.434       .  S
Zn254       O258   1.967       .  S
Zn254       O259   2.024       .  S
Zn254       O263   2.029       .  S
Zn254       O270   2.021       .  S
Zn255       O258   1.973       .  S
Zn255       O260   2.031   1_565  S
Zn255       O262   2.027       .  S
Zn255       O266   2.033       .  S
Zn256       O258   1.953       .  S
Zn256       O261   2.009       .  S
Zn256       O264   1.996   1_565  S
Zn256       O267   2.014       .  S
Zn257       O258   1.960       .  S
Zn257       O265   2.029       .  S
Zn257       O268   2.007       .  S
Zn257       O269   2.011       .  S
O259        C271   1.273       .  A
O260        C272   1.274       .  A
O261        C273   1.271       .  A
O262        C271   1.273       .  A
O263        C273   1.273       .  A
O264        C272   1.270       .  A
O265        C274   1.273       .  A
O266        C275   1.274       .  A
O267        C274   1.271       .  A
O268        C275   1.271       .  A
O269        C276   1.272       .  A
O270        C276   1.273       .  A
C271       C1444   1.439       .  S
C272       C1502   1.432       .  S
C273       C1458   1.436       .  S
C274       C1628   1.438       .  S
C275       C1964   1.436       .  S
C276       C1486   1.434       .  S
Zn277       O281   1.958       .  S
Zn277       O282   2.023       .  S
Zn277       O286   2.005   1_545  S
Zn277       O293   2.010       .  S
Zn278       O281   1.954       .  S
Zn278       O283   2.005       .  S
Zn278       O285   2.021       .  S
Zn278       O289   1.999       .  S
Zn279       O281   1.969       .  S
Zn279       O284   2.025   1_545  S
Zn279       O287   2.035       .  S
Zn279       O290   2.018       .  S
Zn280       O281   1.973       .  S
Zn280       O288   2.033       .  S
Zn280       O291   2.034       .  S
Zn280       O292   2.029       .  S
O282        C294   1.272       .  A
O283        C295   1.270       .  A
O284        C296   1.273       .  A
O285        C294   1.272       .  A
O286        C296   1.271       .  A
O287        C295   1.274       .  A
O288        C297   1.274       .  A
O289        C298   1.270       .  A
O290        C297   1.272       .  A
O291        C298   1.274       .  A
O292        C299   1.273       .  A
O293        C299   1.271       .  A
C294       C1388   1.438       .  S
C295       C1810   1.437       .  S
C296       C1404   1.433       .  S
C297       C1432   1.439       .  S
C298       C1416   1.434       .  S
C299       C1460   1.436       .  S
Zn300       O304   1.959       .  S
Zn300       O305   2.026       .  S
Zn300       O309   2.005       .  S
Zn300       O316   2.009       .  S
Zn301       O304   1.951       .  S
Zn301       O306   1.998       .  S
Zn301       O308   2.012       .  S
Zn301       O312   2.008       .  S
Zn302       O304   1.972       .  S
Zn302       O307   2.035       .  S
Zn302       O310   2.036       .  S
Zn302       O313   2.025       .  S
Zn303       O304   1.965       .  S
Zn303       O311   2.018       .  S
Zn303       O314   2.023       .  S
Zn303       O315   2.020       .  S
O305        C317   1.272       .  A
O306        C318   1.270       .  A
O307        C319   1.274       .  A
O308        C317   1.271       .  A
O309        C319   1.271       .  A
O310        C318   1.274       .  A
O311        C320   1.272       .  A
O312        C321   1.271       .  A
O313        C320   1.273       .  A
O314        C321   1.272       .  A
O315        C322   1.272       .  A
O316        C322   1.271       .  A
C317       C1376   1.436       .  S
C318       C1418   1.434       .  S
C319       C1738   1.437       .  S
C320       C1360   1.437       .  S
C321       C1516   1.434       .  S
C322       C1402   1.433       .  S
Zn323       O327   1.951       .  S
Zn323       O328   1.997       .  S
Zn323       O332   2.010       .  S
Zn323       O339   2.010       .  S
Zn324       O327   1.971       .  S
Zn324       O329   2.033       .  S
Zn324       O331   2.031       .  S
Zn324       O335   2.021       .  S
Zn325       O327   1.961       .  S
Zn325       O330   2.029       .  S
Zn325       O333   2.008       .  S
Zn325       O336   2.009       .  S
Zn326       O327   1.967       .  S
Zn326       O334   2.021       .  S
Zn326       O337   2.023       .  S
Zn326       O338   2.032       .  S
O328        C340   1.270       .  A
O329        C341   1.274       .  A
O330        C342   1.273       .  A
O331        C340   1.274       .  A
O332        C342   1.271       .  A
O333        C341   1.271       .  A
O334        C343   1.273       .  A
O335        C344   1.272       .  A
O336        C343   1.271       .  A
O337        C344   1.272       .  A
O338        C345   1.273       .  A
O339        C345   1.271       .  A
C340       C1332   1.432       .  S
C341       C1712   1.437       .  S
C342       C1374   1.437       .  S
C343       C1346   1.433       .  S
C344       C1318   1.437       .  S
C345       C1544   1.437       .  S
Zn346       O350   1.968       .  S
Zn346       O351   2.018       .  S
Zn346       O355   2.023   1_565  S
Zn346       O362   2.035       .  S
Zn347       O350   1.973       .  S
Zn347       O352   2.029       .  S
Zn347       O354   2.032       .  S
Zn347       O358   2.032       .  S
Zn348       O350   1.959       .  S
Zn348       O353   2.008   1_565  S
Zn348       O356   2.013       .  S
Zn348       O359   2.023       .  S
Zn349       O350   1.954       .  S
Zn349       O357   2.017       .  S
Zn349       O360   1.996       .  S
Zn349       O361   2.006       .  S
O351        C363   1.272       .  A
O352        C364   1.273       .  A
O353        C365   1.271       .  A
O354        C363   1.274       .  A
O355        C365   1.273       .  A
O356        C364   1.271       .  A
O357        C366   1.271       .  A
O358        C367   1.274       .  A
O359        C366   1.272       .  A
O360        C367   1.270       .  A
O361        C368   1.270       .  A
O362        C368   1.274       .  A
C363       C1430   1.439       .  S
C364       C1614   1.437       .  S
C365       C1348   1.433       .  S
C366       C1304   1.437       .  S
C367       C1334   1.432       .  S
C368       C1656   1.437       .  S
Zn369       O373   1.955       .  S
Zn369       O374   2.022       .  S
Zn369       O378   2.010       .  S
Zn369       O385   2.000       .  S
Zn370       O373   1.959       .  S
Zn370       O375   2.007       .  S
Zn370       O377   2.023       .  S
Zn370       O381   2.014       .  S
Zn371       O373   1.968       .  S
Zn371       O376   2.033       .  S
Zn371       O379   2.024       .  S
Zn371       O382   2.014       .  S
Zn372       O373   1.972       .  S
Zn372       O380   2.030       .  S
Zn372       O383   2.028       .  S
Zn372       O384   2.031       .  S
O374        C386   1.272       .  A
O375        C387   1.271       .  A
O376        C388   1.274       .  A
O377        C386   1.272       .  A
O378        C388   1.271       .  A
O379        C387   1.273       .  A
O380        C389   1.273       .  A
O381        C390   1.271       .  A
O382        C389   1.271       .  A
O383        C390   1.273       .  A
O384        C391   1.274       .  A
O385        C391   1.270       .  A
C386       C1768   1.438       .  S
C387       C1248   1.433       .  S
C388       C1262   1.438       .  S
C389       C1290   1.438       .  S
C390       C1276   1.437       .  S
C391       C1234   1.433       .  S
Zn392       O396   1.951       .  S
Zn392       O397   2.012       .  S
Zn392       O401   1.996       .  S
Zn392       O408   2.006       .  S
Zn393       O396   1.960       .  S
Zn393       O398   2.005       .  S
Zn393       O400   2.028       .  S
Zn393       O404   2.012       .  S
Zn394       O396   1.973       .  S
Zn394       O399   2.034       .  S
Zn394       O402   2.034       .  S
Zn394       O405   2.026       .  S
Zn395       O396   1.967       .  S
Zn395       O403   2.024       .  S
Zn395       O406   2.021       .  S
Zn395       O407   2.027       .  S
O397        C409   1.271       .  A
O398        C410   1.271       .  A
O399        C411   1.274       .  A
O400        C409   1.273       .  A
O401        C411   1.270       .  A
O402        C410   1.274       .  A
O403        C412   1.273       .  A
O404        C413   1.272       .  A
O405        C412   1.273       .  A
O406        C413   1.273       .  A
O407        C414   1.273       .  A
O408        C414   1.271       .  A
C409       C1220   1.437       .  S
C410       C1192   1.436       .  S
C411       C1236   1.433       .  S
C412       C1726   1.439       .  S
C413       C1250   1.434       .  S
C414       C1206   1.434       .  S
Zn415       O419   1.953       .  S
Zn415       O420   1.997       .  S
Zn415       O424   2.010       .  S
Zn415       O431   2.015       .  S
Zn416       O419   1.972       .  S
Zn416       O421   2.025       .  S
Zn416       O423   2.031       .  S
Zn416       O427   2.032       .  S
Zn417       O419   1.966       .  S
Zn417       O422   2.024       .  S
Zn417       O425   2.018       .  S
Zn417       O428   2.019       .  S
Zn418       O419   1.961       .  S
Zn418       O426   2.012       .  S
Zn418       O429   2.009       .  S
Zn418       O430   2.032       .  S
O420        C432   1.270       .  A
O421        C433   1.272       .  A
O422        C434   1.273       .  A
O423        C432   1.274       .  A
O424        C434   1.271       .  A
O425        C433   1.272       .  A
O426        C435   1.272       .  A
O427        C436   1.274       .  A
O428        C435   1.273       .  A
O429        C436   1.271       .  A
O430        C437   1.273       .  A
O431        C437   1.271       .  A
C432       C1152   1.432       .  S
C433       C1670   1.438       .  S
C434       C1178   1.435       .  S
C435       C1136   1.433       .  S
C436       C1166   1.437       .  S
C437       C1292   1.439       .  S
Zn438       O442   1.959       .  S
Zn438       O443   2.010       .  S
Zn438       O447   2.008       .  S
Zn438       O454   2.029       .  S
Zn439       O442   1.965       .  S
Zn439       O444   2.018       .  S
Zn439       O446   2.018       .  S
Zn439       O450   2.024       .  S
Zn440       O442   1.971       .  S
Zn440       O445   2.032       .  S
Zn440       O448   2.022       .  S
Zn440       O451   2.031       .  S
Zn441       O442   1.952       .  S
Zn441       O449   2.000       .  S
Zn441       O452   2.009       .  S
Zn441       O453   2.012       .  S
O443        C455   1.271       .  A
O444        C456   1.272       .  A
O445        C457   1.274       .  A
O446        C455   1.272       .  A
O447        C457   1.271       .  A
O448        C456   1.272       .  A
O449        C458   1.270       .  A
O450        C459   1.272       .  A
O451        C458   1.274       .  A
O452        C459   1.271       .  A
O453        C460   1.271       .  A
O454        C460   1.273       .  A
C455       C1150   1.432       .  S
C456       C1642   1.436       .  S
C457       C1110   1.437       .  S
C458       C1138   1.433       .  S
C459       C1122   1.434       .  S
C460       C1222   1.437       .  S
Zn461       O465   1.957       .  S
Zn461       O466   2.021       .  S
Zn461       O470   2.012       .  S
Zn461       O477   2.005       .  S
Zn462       O465   1.955       .  S
Zn462       O467   2.004       .  S
Zn462       O469   2.020       .  S
Zn462       O473   2.003       .  S
Zn463       O465   1.970       .  S
Zn463       O468   2.027       .  S
Zn463       O471   2.028       .  S
Zn463       O474   2.025       .  S
Zn464       O465   1.971       .  S
Zn464       O472   2.019       .  S
Zn464       O475   2.036       .  S
Zn464       O476   2.028       .  S
O466        C478   1.272       .  A
O467        C479   1.271       .  A
O468        C480   1.273       .  A
O469        C478   1.272       .  A
O470        C480   1.271       .  A
O471        C479   1.273       .  A
O472        C481   1.272       .  A
O473        C482   1.270       .  A
O474        C481   1.273       .  A
O475        C482   1.274       .  A
O476        C483   1.274       .  A
O477        C483   1.271       .  A
C478       C2006   1.437       .  S
C479       C1052   1.434       .  S
C480       C1278   1.436       .  S
C481       C1096   1.438       .  S
C482       C1080   1.436       .  S
C483       C1066   1.434       .  S
Zn484       O488   1.969       .  S
Zn484       O489   2.014       .  S
Zn484       O493   2.033       .  S
Zn484       O500   2.025       .  S
Zn485       O488   1.974       .  S
Zn485       O490   2.032       .  S
Zn485       O492   2.030       .  S
Zn485       O496   2.028       .  S
Zn486       O488   1.954       .  S
Zn486       O491   2.006       .  S
Zn486       O494   2.001       .  S
Zn486       O497   2.023       .  S
Zn487       O488   1.956       .  S
Zn487       O495   2.024       .  S
Zn487       O498   2.006       .  S
Zn487       O499   2.006       .  S
O489        C501   1.271       .  A
O490        C502   1.274       .  A
O491        C503   1.271       .  A
O492        C501   1.273       .  A
O493        C503   1.274       .  A
O494        C502   1.270       .  A
O495        C504   1.272       .  A
O496        C505   1.273       .  A
O497        C504   1.272       .  A
O498        C505   1.271       .  A
O499        C506   1.271       .  A
O500        C506   1.273       .  A
C501       C1038   1.437       .  S
C502       C1068   1.434       .  S
C503       C1024   1.436       .  S
C504       C1950   1.439       .  S
C505       C1208   1.435       .  S
C506       C1054   1.434       .  S
Zn507       O511   1.960       .  S
Zn507       O512   2.029       .  S
Zn507       O516   2.012       .  S
Zn507       O523   2.006       .  S
Zn508       O511   1.951       .  S
Zn508       O513   2.009       .  S
Zn508       O515   2.014       .  S
Zn508       O519   1.998       .  S
Zn509       O511   1.964       .  S
Zn509       O514   2.016       .  S
Zn509       O517   2.024       .  S
Zn509       O520   2.020       .  S
Zn510       O511   1.970       .  S
Zn510       O518   2.026       .  S
Zn510       O521   2.031       .  S
Zn510       O522   2.030       .  S
O512        C524   1.273       .  A
O513        C525   1.271       .  A
O514        C526   1.272       .  A
O515        C524   1.271       .  A
O516        C526   1.272       .  A
O517        C525   1.272       .  A
O518        C527   1.273       .  A
O519        C528   1.270       .  A
O520        C527   1.272       .  A
O521        C528   1.274       .  A
O522        C529   1.274       .  A
O523        C529   1.271       .  A
C524       C1094   1.438       .  S
C525       C1180   1.434       .  S
C526        C982   1.432       .  S
C527       C1880   1.438       .  S
C528        C998   1.433       .  S
C529       C1010   1.435       .  S
Zn530       O534   1.971       .  S
Zn530       O535   2.031       .  S
Zn530       O539   2.023       .  S
Zn530       O546   2.031       .  S
Zn531       O534   1.960       .  S
Zn531       O536   2.010       .  S
Zn531       O538   2.004       .  S
Zn531       O542   2.028       .  S
Zn532       O534   1.966       .  S
Zn532       O537   2.021       .  S
Zn532       O540   2.020       .  S
Zn532       O543   2.027       .  S
Zn533       O534   1.950       .  S
Zn533       O541   2.004       .  S
Zn533       O544   2.011       .  S
Zn533       O545   1.997       .  S
O535        C547   1.274       .  A
O536        C548   1.271       .  A
O537        C549   1.272       .  A
O538        C547   1.270       .  A
O539        C549   1.272       .  A
O540        C548   1.273       .  A
O541        C550   1.270       .  A
O542        C551   1.273       .  A
O543        C550   1.273       .  A
O544        C551   1.270       .  A
O545        C552   1.270       .  A
O546        C552   1.274       .  A
C547        C968   1.435       .  S
C548        C996   1.433       .  S
C549       C1838   1.438       .  S
C550       C1124   1.434       .  S
C551       C1040   1.437       .  S
C552        C984   1.433       .  S
Zn553       O557   1.958       .  S
Zn553       O558   2.014       .  S
Zn553       O562   2.007   1_545  S
Zn553       O569   2.024       .  S
Zn554       O557   1.972       .  S
Zn554       O559   2.030       .  S
Zn554       O561   2.030       .  S
Zn554       O565   2.033       .  S
Zn555       O557   1.968       .  S
Zn555       O560   2.021   1_545  S
Zn555       O563   2.015       .  S
Zn555       O566   2.028       .  S
Zn556       O557   1.955       .  S
Zn556       O564   2.007       .  S
Zn556       O567   2.002       .  S
Zn556       O568   2.020       .  S
O558        C570   1.272       .  A
O559        C571   1.273       .  A
O560        C572   1.273       .  A
O561        C570   1.273       .  A
O562        C572   1.271       .  A
O563        C571   1.271       .  A
O564        C573   1.270       .  A
O565        C574   1.274       .  A
O566        C573   1.273       .  A
O567        C574   1.271       .  A
O568        C575   1.272       .  A
O569        C575   1.272       .  A
C570        C942   1.437       .  S
C571        C956   1.438       .  S
C572        C912   1.433       .  S
C573       C1012   1.435       .  S
C574        C928   1.434       .  S
C575       C1572   1.438       .  S
Zn576       O580   1.968       .  S
Zn576       O581   2.015       .  S
Zn576       O585   2.031       .  S
Zn576       O592   2.022       .  S
Zn577       O580   1.972       .  S
Zn577       O582   2.032       .  S
Zn577       O584   2.031       .  S
Zn577       O588   2.030       .  S
Zn578       O580   1.955       .  S
Zn578       O583   2.008       .  S
Zn578       O586   1.999       .  S
Zn578       O589   2.017       .  S
Zn579       O580   1.958       .  S
Zn579       O587   2.022       .  S
Zn579       O590   2.012       .  S
Zn579       O591   2.007       .  S
O581        C593   1.271       .  A
O582        C594   1.274       .  A
O583        C595   1.270       .  A
O584        C593   1.273       .  A
O585        C595   1.273       .  A
O586        C594   1.270       .  A
O587        C596   1.272       .  A
O588        C597   1.273       .  A
O589        C596   1.271       .  A
O590        C597   1.271       .  A
O591        C598   1.271       .  A
O592        C598   1.273       .  A
C593        C898   1.438       .  S
C594        C914   1.433       .  S
C595        C970   1.436       .  S
C596       C1530   1.436       .  S
C597        C884   1.437       .  S
C598        C926   1.433       .  S
Zn599       O603   1.968       .  S
Zn599       O604   2.029       .  S
Zn599       O608   2.028       .  S
Zn599       O615   2.021       .  S
Zn600       O603   1.953       .  S
Zn600       O605   1.998       .  S
Zn600       O607   2.009       .  S
Zn600       O611   2.016       .  S
Zn601       O603   1.972       .  S
Zn601       O606   2.024       .  S
Zn601       O609   2.026       .  S
Zn601       O612   2.030       .  S
Zn602       O603   1.961       .  S
Zn602       O610   2.007       .  S
Zn602       O613   2.032       .  S
Zn602       O614   2.010       .  S
O604        C616   1.273       .  A
O605        C617   1.270       .  A
O606        C618   1.272       .  A
O607        C616   1.271       .  A
O608        C618   1.273       .  A
O609        C617   1.273       .  A
O610        C619   1.271       .  A
O611        C620   1.271       .  A
O612        C619   1.273       .  A
O613        C620   1.273       .  A
O614        C621   1.272       .  A
O615        C621   1.273       .  A
C616        C872   1.436       .  S
C617        C842   1.431       .  S
C618       C1474   1.440       .  S
C619       C1082   1.436       .  S
C620        C900   1.439       .  S
C621        C856   1.433       .  S
Zn622       O626   1.961       .  S
Zn622       O627   2.032       .  S
Zn622       O631   2.009       .  S
Zn622       O638   2.007       .  S
Zn623       O626   1.952       .  S
Zn623       O628   2.009       .  S
Zn623       O630   2.012       .  S
Zn623       O634   1.999   1_565  S
Zn624       O626   1.967       .  S
Zn624       O629   2.017       .  S
Zn624       O632   2.027       .  S
Zn624       O635   2.023       .  S
Zn625       O626   1.972       .  S
Zn625       O633   2.027       .  S
Zn625       O636   2.030   1_565  S
Zn625       O637   2.032       .  S
O627        C639   1.273       .  A
O628        C640   1.271       .  A
O629        C641   1.272       .  A
O630        C639   1.271       .  A
O631        C641   1.272       .  A
O632        C640   1.273       .  A
O633        C642   1.273       .  A
O634        C643   1.270       .  A
O635        C642   1.272       .  A
O636        C643   1.274       .  A
O637        C644   1.274       .  A
O638        C644   1.271       .  A
C639        C954   1.438       .  S
C640        C828   1.436       .  S
C641        C844   1.432       .  S
C642       C1446   1.439       .  S
C643        C858   1.433       .  S
C644       C1026   1.436       .  S
Zn645       O649   1.954       .  S
Zn645       O650   2.024       .  S
Zn645       O654   2.006       .  S
Zn645       O661   2.001       .  S
Zn646       O649   1.958       .  S
Zn646       O651   2.008   1_545  S
Zn646       O653   2.024       .  S
Zn646       O657   2.013       .  S
Zn647       O649   1.969       .  S
Zn647       O652   2.037       .  S
Zn647       O655   2.024   1_545  S
Zn647       O658   2.015       .  S
Zn648       O649   1.972       .  S
Zn648       O656   2.029       .  S
Zn648       O659   2.027       .  S
Zn648       O660   2.028       .  S
O650        C662   1.272       .  A
O651        C663   1.271       .  A
O652        C664   1.274       .  A
O653        C662   1.272       .  A
O654        C664   1.270       .  A
O655        C663   1.273       .  A
O656        C665   1.273       .  A
O657        C666   1.271       .  A
O658        C665   1.271       .  A
O659        C666   1.273       .  A
O660        C667   1.273       .  A
O661        C667   1.271       .  A
C662       C1390   1.439       .  S
C663        C786   1.434       .  S
C664       C1264   1.437       .  S
C665        C814   1.438       .  S
C666        C830   1.436       .  S
C667        C800   1.432       .  S
Zn668       O672   1.954       .  S
Zn668       O673   2.021       .  S
Zn668       O677   2.005       .  S
Zn668       O684   2.003       .  S
Zn669       O672   1.957       .  S
Zn669       O674   2.006       .  S
Zn669       O676   2.021       .  S
Zn669       O680   2.010       .  S
Zn670       O672   1.969       .  S
Zn670       O675   2.032       .  S
Zn670       O678   2.021       .  S
Zn670       O681   2.018       .  S
Zn671       O672   1.971       .  S
Zn671       O679   2.031       .  S
Zn671       O682   2.028       .  S
Zn671       O683   2.030       .  S
O673        C685   1.272       .  A
O674        C686   1.271       .  A
O675        C687   1.274       .  A
O676        C685   1.272       .  A
O677        C687   1.270       .  A
O678        C686   1.273       .  A
O679        C688   1.273       .  A
O680        C689   1.271       .  A
O681        C688   1.272       .  A
O682        C689   1.273       .  A
O683        C690   1.274       .  A
O684        C690   1.271       .  A
C685       C1362   1.437       .  S
C686        C802   1.432       .  S
C687       C1194   1.436       .  S
C688        C772   1.439       .  S
C689        C870   1.436       .  S
C690        C788   1.434       .  S
Zn691       O695   1.969       .  S
Zn691       O696   2.036       .  S
Zn691       O700   2.025       .  S
Zn691       O707   2.020       .  S
Zn692       O695   1.955       .  S
Zn692       O697   2.023       .  S
Zn692       O699   2.007       .  S
Zn692       O703   2.002       .  S
Zn693       O695   1.957       .  S
Zn693       O698   2.005       .  S
Zn693       O701   2.021       .  S
Zn693       O704   2.011       .  S
Zn694       O695   1.972       .  S
Zn694       O702   2.027       .  S
Zn694       O705   2.029       .  S
Zn694       O706   2.029       .  S
O696        C708   1.274       .  A
O697        C709   1.272       .  A
O698        C710   1.271       .  A
O699        C708   1.271       .  A
O700        C710   1.273       .  A
O701        C709   1.272       .  A
O702        C711   1.273       .  A
O703        C712   1.271       .  A
O704        C711   1.271       .  A
O705        C712   1.274       .  A
O706        C713   1.273       .  A
O707        C713   1.272       .  A
C708       C1164   1.437       .  S
C709       C1320   1.438       .  S
C710        C744   1.433       .  S
C711        C886   1.436       .  S
C712        C758   1.433       .  S
C713        C774   1.439       .  S
Zn714       O718   1.973       .  S
Zn714       O719   2.031       .  S
Zn714       O723   2.031       .  S
Zn714       O730   2.030       .  S
Zn715       O718   1.959       .  S
Zn715       O720   2.023       .  S
Zn715       O722   2.013       .  S
Zn715       O726   2.007   1_565  S
Zn716       O718   1.954       .  S
Zn716       O721   1.998       .  S
Zn716       O724   2.017       .  S
Zn716       O727   2.007       .  S
Zn717       O718   1.969       .  S
Zn717       O725   2.035       .  S
Zn717       O728   2.022   1_565  S
Zn717       O729   2.018       .  S
O719        C731   1.273       .  A
O720        C732   1.272       .  A
O721        C733   1.270       .  A
O722        C731   1.271       .  A
O723        C733   1.274       .  A
O724        C732   1.271       .  A
O725        C734   1.274       .  A
O726        C735   1.271       .  A
O727        C734   1.270       .  A
O728        C735   1.273       .  A
O729        C736   1.272       .  A
O730        C736   1.273       .  A
C731        C940   1.438       .  S
C732       C1306   1.437       .  S
C733        C746   1.433       .  S
C734       C1108   1.437       .  S
C735        C760   1.433       .  S
C736        C816   1.438       .  S
C737        C745   1.438       .  S
C737        C738   1.400       .  A
C737        C742   1.402       .  A
C738        C739   1.399       .  A
C738        H747   1.083       .  S
C739        C740   1.402       .  A
C739        H748   1.084       .  S
C740        C743   1.438       .  S
C740        C741   1.400       .  A
C741        C742   1.398       .  A
C741        H749   1.083       .  S
C742        H750   1.084       .  S
C743        C744   1.205       .  T
C745        C746   1.205       .  T
C751        C759   1.438       .  S
C751        C752   1.401       .  A
C751        C756   1.401       .  A
C752        C753   1.399       .  A
C752        H761   1.084       .  S
C753        C754   1.402       .  A
C753        H762   1.084       .  S
C754        C757   1.438       .  S
C754        C755   1.400       .  A
C755        C756   1.398       .  A
C755        H763   1.084       .  S
C756        H764   1.084       .  S
C757        C758   1.205       .  T
C759        C760   1.205       .  T
C765        C773   1.444       .  S
C765        C766   1.402       .  A
C765        C770   1.402       .  A
C766        C767   1.401       .  A
C766        H775   1.083       .  S
C767        C768   1.402       .  A
C767        H776   1.084       .  S
C768        C771   1.444       .  S
C768        C769   1.402       .  A
C769        C770   1.400       .  A
C769        H777   1.083       .  S
C770        H778   1.084       .  S
C771        C772   1.208       .  T
C773        C774   1.208       .  T
C779        C787   1.439       .  S
C779        C780   1.401       .  A
C779        C784   1.402       .  A
C780        C781   1.399       .  A
C780        H789   1.083       .  S
C781        C782   1.402       .  A
C781        H790   1.084       .  S
C782        C785   1.439       .  S
C782        C783   1.400       .  A
C783        C784   1.399       .  A
C783        H791   1.083       .  S
C784        H792   1.084       .  S
C785        C786   1.205       .  T
C787        C788   1.205       .  T
C793        C801   1.438       .  S
C793        C794   1.401       .  A
C793        C798   1.401       .  A
C794        C795   1.397       .  A
C794        H803   1.083       .  S
C795        C796   1.400       .  A
C795        H804   1.084       .  S
C796        C799   1.438       .  S
C796        C797   1.402       .  A
C797        C798   1.399       .  A
C797        H805   1.083       .  S
C798        H806   1.084       .  S
C799        C800   1.205       .  T
C801        C802   1.204       .  T
C807        C815   1.443       .  S
C807        C808   1.402       .  A
C807        C812   1.402       .  A
C808        C809   1.400   1_565  A
C808        H817   1.083       .  S
C809        C810   1.402       .  A
C809        H818   1.084       .  S
C810        C813   1.443       .  S
C810        C811   1.402       .  A
C811        C812   1.400   1_545  A
C811        H819   1.083       .  S
C812        H820   1.083       .  S
C813        C814   1.208       .  T
C815        C816   1.208       .  T
C821        C829   1.441       .  S
C821        C822   1.402   1_545  A
C821        C826   1.401       .  A
C822        C823   1.399   1_455  A
C822        H831   1.084       .  S
C823        C824   1.401       .  A
C823        H832   1.083       .  S
C824        C827   1.440       .  S
C824        C825   1.402   1_565  A
C825        C826   1.399   1_655  A
C825        H833   1.084       .  S
C826        H834   1.083       .  S
C827        C828   1.206       .  T
C829        C830   1.206       .  T
C835        C843   1.437       .  S
C835        C836   1.401       .  A
C835        C840   1.401       .  A
C836        C837   1.398       .  A
C836        H845   1.083       .  S
C837        C838   1.401       .  A
C837        H846   1.084       .  S
C838        C841   1.436       .  S
C838        C839   1.400       .  A
C839        C840   1.397       .  A
C839        H847   1.084       .  S
C840        H848   1.084       .  S
C841        C842   1.204       .  T
C843        C844   1.204       .  T
C849        C857   1.438       .  S
C849        C850   1.401       .  A
C849        C854   1.401       .  A
C850        C851   1.398       .  A
C850        H859   1.084       .  S
C851        C852   1.401       .  A
C851        H860   1.084       .  S
C852        C855   1.438       .  S
C852        C853   1.402       .  A
C853        C854   1.398       .  A
C853        H861   1.084       .  S
C854        H862   1.084       .  S
C855        C856   1.205       .  T
C857        C858   1.205       .  T
C863        C871   1.441       .  S
C863        C864   1.401       .  A
C863        C868   1.402       .  A
C864        C865   1.399   1_655  A
C864        H873   1.084       .  S
C865        C866   1.401       .  A
C865        H874   1.083       .  S
C866        C869   1.441       .  S
C866        C867   1.402       .  A
C867        C868   1.400   1_455  A
C867        H875   1.084       .  S
C868        H876   1.083       .  S
C869        C870   1.206       .  T
C871        C872   1.206       .  T
C877        C885   1.441       .  S
C877        C878   1.401       .  A
C877        C882   1.402       .  A
C878        C879   1.400   1_455  A
C878        H887   1.084       .  S
C879        C880   1.402       .  A
C879        H888   1.083       .  S
C880        C883   1.441       .  S
C880        C881   1.401       .  A
C881        C882   1.399   1_655  A
C881        H889   1.084       .  S
C882        H890   1.083       .  S
C883        C884   1.207       .  T
C885        C886   1.207       .  T
C891        C899   1.444       .  S
C891        C892   1.402       .  A
C891        C896   1.402       .  A
C892        C893   1.400       .  A
C892        H901   1.083       .  S
C893        C894   1.401       .  A
C893        H902   1.084       .  S
C894        C897   1.443       .  S
C894        C895   1.402       .  A
C895        C896   1.401       .  A
C895        H903   1.084       .  S
C896        H904   1.083       .  S
C897        C898   1.208       .  T
C899        C900   1.208       .  T
C905        C913   1.438       .  S
C905        C906   1.402       .  A
C905        C910   1.400       .  A
C906        C907   1.398       .  A
C906        H915   1.084       .  S
C907        C908   1.400       .  A
C907        H916   1.084       .  S
C908        C911   1.438       .  S
C908        C909   1.402       .  A
C909        C910   1.398       .  A
C909        H917   1.084       .  S
C910        H918   1.084       .  S
C911        C912   1.205       .  T
C913        C914   1.205       .  T
C919        C927   1.439       .  S
C919        C920   1.401       .  A
C919        C924   1.401       .  A
C920        C921   1.398       .  A
C920        H929   1.084       .  S
C921        C922   1.401       .  A
C921        H930   1.084       .  S
C922        C925   1.439       .  S
C922        C923   1.402       .  A
C923        C924   1.399       .  A
C923        H931   1.083       .  S
C924        H932   1.084       .  S
C925        C926   1.205       .  T
C927        C928   1.205       .  T
C933        C941   1.442       .  S
C933        C934   1.403   1_545  A
C933        C938   1.401       .  A
C934        C935   1.400   1_655  A
C934        H943   1.083       .  S
C935        C936   1.401       .  A
C935        H944   1.084       .  S
C936        C939   1.442       .  S
C936        C937   1.402   1_565  A
C937        C938   1.400   1_455  A
C937        H945   1.083       .  S
C938        H946   1.084       .  S
C939        C940   1.207       .  T
C941        C942   1.207       .  T
C947        C955   1.443       .  S
C947        C948   1.402       .  A
C947        C952   1.402       .  A
C948        C949   1.400   1_545  A
C948        H957   1.084       .  S
C949        C950   1.402       .  A
C949        H958   1.083       .  S
C950        C953   1.443       .  S
C950        C951   1.402       .  A
C951        C952   1.400   1_565  A
C951        H959   1.083       .  S
C952        H960   1.084       .  S
C953        C954   1.208       .  T
C955        C956   1.208       .  T
C961        C969   1.441       .  S
C961        C962   1.401       .  A
C961        C966   1.402       .  A
C962        C963   1.400       .  A
C962        H971   1.084       .  S
C963        C964   1.403       .  A
C963        H972   1.083       .  S
C964        C967   1.441       .  S
C964        C965   1.400       .  A
C965        C966   1.399       .  A
C965        H973   1.084       .  S
C966        H974   1.083       .  S
C967        C968   1.206       .  T
C969        C970   1.207       .  T
C975        C983   1.438       .  S
C975        C976   1.401       .  A
C975        C980   1.401       .  A
C976        C977   1.398       .  A
C976        H985   1.084       .  S
C977        C978   1.401       .  A
C977        H986   1.084       .  S
C978        C981   1.438   1_565  S
C978        C979   1.401       .  A
C979        C980   1.398       .  A
C979        H987   1.084       .  S
C980        H988   1.084       .  S
C981        C982   1.205       .  T
C983        C984   1.205       .  T
C989        C997   1.438       .  S
C989        C990   1.401       .  A
C989        C994   1.401       .  A
C990        C991   1.398       .  A
C990        H999   1.084       .  S
C991        C992   1.401       .  A
C991       H1000   1.084       .  S
C992        C995   1.438       .  S
C992        C993   1.401       .  A
C993        C994   1.398       .  A
C993       H1001   1.084       .  S
C994       H1002   1.084       .  S
C995        C996   1.205       .  T
C997        C998   1.205       .  T
C1003      C1011   1.440       .  S
C1003      C1004   1.402       .  A
C1003      C1008   1.400       .  A
C1004      C1005   1.399       .  A
C1004      H1013   1.083       .  S
C1005      C1006   1.400       .  A
C1005      H1014   1.084       .  S
C1006      C1009   1.440       .  S
C1006      C1007   1.403       .  A
C1007      C1008   1.399       .  A
C1007      H1015   1.083       .  S
C1008      H1016   1.084       .  S
C1009      C1010   1.206       .  T
C1011      C1012   1.206       .  T
C1017      C1025   1.441       .  S
C1017      C1018   1.402       .  A
C1017      C1022   1.401       .  A
C1018      C1019   1.399       .  A
C1018      H1027   1.084       .  S
C1019      C1020   1.401       .  A
C1019      H1028   1.083       .  S
C1020      C1023   1.441       .  S
C1020      C1021   1.402       .  A
C1021      C1022   1.400       .  A
C1021      H1029   1.084       .  S
C1022      H1030   1.083       .  S
C1023      C1024   1.207       .  T
C1025      C1026   1.207       .  T
C1031      C1039   1.442       .  S
C1031      C1032   1.401       .  A
C1031      C1036   1.402       .  A
C1032      C1033   1.400       .  A
C1032      H1041   1.084       .  S
C1033      C1034   1.402       .  A
C1033      H1042   1.084       .  S
C1034      C1037   1.442       .  S
C1034      C1035   1.402       .  A
C1035      C1036   1.400       .  A
C1035      H1043   1.083       .  S
C1036      H1044   1.084       .  S
C1037      C1038   1.207       .  T
C1039      C1040   1.207       .  T
C1045      C1053   1.439       .  S
C1045      C1046   1.400       .  A
C1045      C1050   1.402       .  A
C1046      C1047   1.399       .  A
C1046      H1055   1.083       .  S
C1047      C1048   1.402       .  A
C1047      H1056   1.084       .  S
C1048      C1051   1.439       .  S
C1048      C1049   1.400       .  A
C1049      C1050   1.399       .  A
C1049      H1057   1.083       .  S
C1050      H1058   1.084       .  S
C1051      C1052   1.205       .  T
C1053      C1054   1.205       .  T
C1059      C1067   1.439   1_545  S
C1059      C1060   1.400       .  A
C1059      C1064   1.402       .  A
C1060      C1061   1.399       .  A
C1060      H1069   1.083       .  S
C1061      C1062   1.402       .  A
C1061      H1070   1.084       .  S
C1062      C1065   1.439       .  S
C1062      C1063   1.400       .  A
C1063      C1064   1.398       .  A
C1063      H1071   1.083       .  S
C1064      H1072   1.084       .  S
C1065      C1066   1.205       .  T
C1067      C1068   1.205       .  T
C1073      C1081   1.441       .  S
C1073      C1074   1.401       .  A
C1073      C1078   1.402       .  A
C1074      C1075   1.400       .  A
C1074      H1083   1.083       .  S
C1075      C1076   1.403       .  A
C1075      H1084   1.084       .  S
C1076      C1079   1.441       .  S
C1076      C1077   1.400       .  A
C1077      C1078   1.399       .  A
C1077      H1085   1.083       .  S
C1078      H1086   1.084       .  S
C1079      C1080   1.207       .  T
C1081      C1082   1.206       .  T
C1087      C1095   1.442       .  S
C1087      C1088   1.402       .  A
C1087      C1092   1.402       .  A
C1088      C1089   1.400       .  A
C1088      H1097   1.083       .  S
C1089      C1090   1.401       .  A
C1089      H1098   1.083       .  S
C1090      C1093   1.443       .  S
C1090      C1091   1.402       .  A
C1091      C1092   1.400       .  A
C1091      H1099   1.083       .  S
C1092      H1100   1.083       .  S
C1093      C1094   1.208       .  T
C1095      C1096   1.208       .  T
C1101      C1109   1.442       .  S
C1101      C1102   1.401       .  A
C1101      C1106   1.402       .  A
C1102      C1103   1.400       .  A
C1102      H1111   1.083       .  S
C1103      C1104   1.402       .  A
C1103      H1112   1.084       .  S
C1104      C1107   1.442       .  S
C1104      C1105   1.401       .  A
C1105      C1106   1.400       .  A
C1105      H1113   1.083       .  S
C1106      H1114   1.084       .  S
C1107      C1108   1.207       .  T
C1109      C1110   1.207       .  T
C1115      C1123   1.439       .  S
C1115      C1116   1.401       .  A
C1115      C1120   1.401       .  A
C1116      C1117   1.399       .  A
C1116      H1125   1.084       .  S
C1117      C1118   1.401       .  A
C1117      H1126   1.083       .  S
C1118      C1121   1.439       .  S
C1118      C1119   1.401       .  A
C1119      C1120   1.398       .  A
C1119      H1127   1.084       .  S
C1120      H1128   1.083       .  S
C1121      C1122   1.205       .  T
C1123      C1124   1.205       .  T
C1129      C1137   1.439       .  S
C1129      C1130   1.401       .  A
C1129      C1134   1.401       .  A
C1130      C1131   1.398       .  A
C1130      H1139   1.084       .  S
C1131      C1132   1.401       .  A
C1131      H1140   1.084       .  S
C1132      C1135   1.439       .  S
C1132      C1133   1.401       .  A
C1133      C1134   1.398       .  A
C1133      H1141   1.084       .  S
C1134      H1142   1.084       .  S
C1135      C1136   1.205       .  T
C1137      C1138   1.205       .  T
C1143      C1151   1.438       .  S
C1143      C1144   1.401       .  A
C1143      C1148   1.401       .  A
C1144      C1145   1.398       .  A
C1144      H1153   1.084       .  S
C1145      C1146   1.401       .  A
C1145      H1154   1.084       .  S
C1146      C1149   1.438   1_545  S
C1146      C1147   1.401       .  A
C1147      C1148   1.398       .  A
C1147      H1155   1.084       .  S
C1148      H1156   1.084       .  S
C1149      C1150   1.205       .  T
C1151      C1152   1.205       .  T
C1157      C1165   1.442       .  S
C1157      C1158   1.401       .  A
C1157      C1162   1.403       .  A
C1158      C1159   1.400       .  A
C1158      H1167   1.084       .  S
C1159      C1160   1.403       .  A
C1159      H1168   1.083       .  S
C1160      C1163   1.442       .  S
C1160      C1161   1.401       .  A
C1161      C1162   1.400       .  A
C1161      H1169   1.084       .  S
C1162      H1170   1.083       .  S
C1163      C1164   1.207       .  T
C1165      C1166   1.207       .  T
C1171      C1179   1.439       .  S
C1171      C1172   1.401       .  A
C1171      C1176   1.401       .  A
C1172      C1173   1.398       .  A
C1172      H1181   1.084       .  S
C1173      C1174   1.400       .  A
C1173      H1182   1.083       .  S
C1174      C1177   1.439       .  S
C1174      C1175   1.402       .  A
C1175      C1176   1.399       .  A
C1175      H1183   1.084       .  S
C1176      H1184   1.083       .  S
C1177      C1178   1.206       .  T
C1179      C1180   1.205       .  T
C1185      C1193   1.441       .  S
C1185      C1186   1.402       .  A
C1185      C1190   1.401       .  A
C1186      C1187   1.399       .  A
C1186      H1195   1.084       .  S
C1187      C1188   1.400       .  A
C1187      H1196   1.083       .  S
C1188      C1191   1.441       .  S
C1188      C1189   1.403       .  A
C1189      C1190   1.400       .  A
C1189      H1197   1.084       .  S
C1190      H1198   1.083       .  S
C1191      C1192   1.206       .  T
C1193      C1194   1.206       .  T
C1199      C1207   1.439       .  S
C1199      C1200   1.400       .  A
C1199      C1204   1.402       .  A
C1200      C1201   1.398       .  A
C1200      H1209   1.083       .  S
C1201      C1202   1.402       .  A
C1201      H1210   1.084       .  S
C1202      C1205   1.439       .  S
C1202      C1203   1.401       .  A
C1203      C1204   1.399       .  A
C1203      H1211   1.083       .  S
C1204      H1212   1.084       .  S
C1205      C1206   1.206       .  T
C1207      C1208   1.206       .  T
C1213      C1221   1.442       .  S
C1213      C1214   1.402       .  A
C1213      C1218   1.402       .  A
C1214      C1215   1.400       .  A
C1214      H1223   1.084       .  S
C1215      C1216   1.402       .  A
C1215      H1224   1.084       .  S
C1216      C1219   1.442       .  S
C1216      C1217   1.402       .  A
C1217      C1218   1.400       .  A
C1217      H1225   1.083       .  S
C1218      H1226   1.084       .  S
C1219      C1220   1.207       .  T
C1221      C1222   1.207       .  T
C1227      C1235   1.439       .  S
C1227      C1228   1.402       .  A
C1227      C1232   1.400       .  A
C1228      C1229   1.399       .  A
C1228      H1237   1.084       .  S
C1229      C1230   1.401       .  A
C1229      H1238   1.083       .  S
C1230      C1233   1.439   1_565  S
C1230      C1231   1.402       .  A
C1231      C1232   1.398       .  A
C1231      H1239   1.084       .  S
C1232      H1240   1.083       .  S
C1233      C1234   1.205       .  T
C1235      C1236   1.205       .  T
C1241      C1249   1.439       .  S
C1241      C1242   1.401       .  A
C1241      C1246   1.401       .  A
C1242      C1243   1.399       .  A
C1242      H1251   1.083       .  S
C1243      C1244   1.402       .  A
C1243      H1252   1.084       .  S
C1244      C1247   1.439       .  S
C1244      C1245   1.401       .  A
C1245      C1246   1.398       .  A
C1245      H1253   1.083       .  S
C1246      H1254   1.084       .  S
C1247      C1248   1.205       .  T
C1249      C1250   1.205       .  T
C1255      C1263   1.443       .  S
C1255      C1256   1.402       .  A
C1255      C1260   1.402       .  A
C1256      C1257   1.401       .  A
C1256      H1265   1.083       .  S
C1257      C1258   1.403       .  A
C1257      H1266   1.084       .  S
C1258      C1261   1.443       .  S
C1258      C1259   1.401       .  A
C1259      C1260   1.399       .  A
C1259      H1267   1.083       .  S
C1260      H1268   1.084       .  S
C1261      C1262   1.208       .  T
C1263      C1264   1.208       .  T
C1269      C1277   1.441       .  S
C1269      C1270   1.402       .  A
C1269      C1274   1.401       .  A
C1270      C1271   1.399       .  A
C1270      H1279   1.084       .  S
C1271      C1272   1.401       .  A
C1271      H1280   1.083       .  S
C1272      C1275   1.441       .  S
C1272      C1273   1.402       .  A
C1273      C1274   1.400       .  A
C1273      H1281   1.084       .  S
C1274      H1282   1.083       .  S
C1275      C1276   1.207       .  T
C1277      C1278   1.207       .  T
C1283      C1291   1.443       .  S
C1283      C1284   1.402       .  A
C1283      C1288   1.402       .  A
C1284      C1285   1.400       .  A
C1284      H1293   1.083       .  S
C1285      C1286   1.401       .  A
C1285      H1294   1.084       .  S
C1286      C1289   1.443       .  S
C1286      C1287   1.402       .  A
C1287      C1288   1.400       .  A
C1287      H1295   1.083       .  S
C1288      H1296   1.084       .  S
C1289      C1290   1.208       .  T
C1291      C1292   1.208       .  T
C1297      C1305   1.442       .  S
C1297      C1298   1.402       .  A
C1297      C1302   1.402       .  A
C1298      C1299   1.400       .  A
C1298      H1307   1.084       .  S
C1299      C1300   1.402       .  A
C1299      H1308   1.084       .  S
C1300      C1303   1.442       .  S
C1300      C1301   1.402       .  A
C1301      C1302   1.400       .  A
C1301      H1309   1.084       .  S
C1302      H1310   1.084       .  S
C1303      C1304   1.207       .  T
C1305      C1306   1.207       .  T
C1311      C1319   1.442       .  S
C1311      C1312   1.402       .  A
C1311      C1316   1.402       .  A
C1312      C1313   1.400       .  A
C1312      H1321   1.083       .  S
C1313      C1314   1.402       .  A
C1313      H1322   1.083       .  S
C1314      C1317   1.442       .  S
C1314      C1315   1.402       .  A
C1315      C1316   1.400       .  A
C1315      H1323   1.083       .  S
C1316      H1324   1.083       .  S
C1317      C1318   1.207       .  T
C1319      C1320   1.208       .  T
C1325      C1333   1.438       .  S
C1325      C1326   1.401       .  A
C1325      C1330   1.401       .  A
C1326      C1327   1.398       .  A
C1326      H1335   1.084       .  S
C1327      C1328   1.401       .  A
C1327      H1336   1.084       .  S
C1328      C1331   1.438       .  S
C1328      C1329   1.401       .  A
C1329      C1330   1.398       .  A
C1329      H1337   1.084       .  S
C1330      H1338   1.084       .  S
C1331      C1332   1.204       .  T
C1333      C1334   1.205       .  T
C1339      C1347   1.438       .  S
C1339      C1340   1.402       .  A
C1339      C1344   1.401       .  A
C1340      C1341   1.398       .  A
C1340      H1349   1.084       .  S
C1341      C1342   1.400       .  A
C1341      H1350   1.083       .  S
C1342      C1345   1.438       .  S
C1342      C1343   1.402       .  A
C1343      C1344   1.399       .  A
C1343      H1351   1.084       .  S
C1344      H1352   1.083       .  S
C1345      C1346   1.205       .  T
C1347      C1348   1.205       .  T
C1353      C1361   1.442       .  S
C1353      C1354   1.402       .  A
C1353      C1358   1.402       .  A
C1354      C1355   1.400   1_554  A
C1354      H1363   1.083       .  S
C1355      C1356   1.402       .  A
C1355      H1364   1.083       .  S
C1356      C1359   1.442       .  S
C1356      C1357   1.401       .  A
C1357      C1358   1.400   1_556  A
C1357      H1365   1.083       .  S
C1358      H1366   1.083       .  S
C1359      C1360   1.207       .  T
C1361      C1362   1.207       .  T
C1367      C1375   1.441       .  S
C1367      C1368   1.401       .  A
C1367      C1372   1.402       .  A
C1368      C1369   1.399       .  A
C1368      H1377   1.084       .  S
C1369      C1370   1.402       .  A
C1369      H1378   1.084       .  S
C1370      C1373   1.441       .  S
C1370      C1371   1.401       .  A
C1371      C1372   1.400       .  A
C1371      H1379   1.084       .  S
C1372      H1380   1.084       .  S
C1373      C1374   1.207       .  T
C1375      C1376   1.207       .  T
C1381      C1389   1.443       .  S
C1381      C1382   1.402       .  A
C1381      C1386   1.402       .  A
C1382      C1383   1.401   1_554  A
C1382      H1391   1.083       .  S
C1383      C1384   1.402       .  A
C1383      H1392   1.084       .  S
C1384      C1387   1.443       .  S
C1384      C1385   1.402       .  A
C1385      C1386   1.400   1_556  A
C1385      H1393   1.084       .  S
C1386      H1394   1.084       .  S
C1387      C1388   1.208       .  T
C1389      C1390   1.208       .  T
C1395      C1403   1.438       .  S
C1395      C1396   1.401       .  A
C1395      C1400   1.402       .  A
C1396      C1397   1.399       .  A
C1396      H1405   1.084       .  S
C1397      C1398   1.402       .  A
C1397      H1406   1.084       .  S
C1398      C1401   1.438       .  S
C1398      C1399   1.400       .  A
C1399      C1400   1.398       .  A
C1399      H1407   1.084       .  S
C1400      H1408   1.084       .  S
C1401      C1402   1.205       .  T
C1403      C1404   1.205       .  T
C1409      C1417   1.440       .  S
C1409      C1410   1.401       .  A
C1409      C1414   1.402       .  A
C1410      C1411   1.399       .  A
C1410      H1419   1.083       .  S
C1411      C1412   1.402       .  A
C1411      H1420   1.084       .  S
C1412      C1415   1.439       .  S
C1412      C1413   1.401       .  A
C1413      C1414   1.399       .  A
C1413      H1421   1.083       .  S
C1414      H1422   1.084       .  S
C1415      C1416   1.206       .  T
C1417      C1418   1.206       .  T
C1423      C1431   1.444       .  S
C1423      C1424   1.402   1_545  A
C1423      C1428   1.402       .  A
C1424      C1425   1.400       .  A
C1424      H1433   1.083       .  S
C1425      C1426   1.402       .  A
C1425      H1434   1.083       .  S
C1426      C1429   1.444       .  S
C1426      C1427   1.403   1_565  A
C1427      C1428   1.401       .  A
C1427      H1435   1.083       .  S
C1428      H1436   1.083       .  S
C1429      C1430   1.208       .  T
C1431      C1432   1.209       .  T
C1437      C1445   1.444       .  S
C1437      C1438   1.402       .  A
C1437      C1442   1.402       .  A
C1438      C1439   1.400   1_554  A
C1438      H1447   1.083   1_565  S
C1439      C1440   1.402       .  A
C1439      H1448   1.083   1_565  S
C1440      C1443   1.444       .  S
C1440      C1441   1.402       .  A
C1441      C1442   1.401   1_556  A
C1441      H1449   1.083       .  S
C1442      H1450   1.083       .  S
C1443      C1444   1.208       .  T
C1445      C1446   1.208       .  T
C1451      C1459   1.441       .  S
C1451      C1452   1.402       .  A
C1451      C1456   1.401       .  A
C1452      C1453   1.400   1_455  A
C1452      H1461   1.084       .  S
C1453      C1454   1.401   1_545  A
C1453      H1462   1.083       .  S
C1454      C1457   1.440       .  S
C1454      C1455   1.401       .  A
C1455      C1456   1.399   1_665  A
C1455      H1463   1.084       .  S
C1456      H1464   1.083       .  S
C1457      C1458   1.206       .  T
C1459      C1460   1.206       .  T
C1465      C1473   1.445       .  S
C1465      C1466   1.402       .  A
C1465      C1470   1.402       .  A
C1466      C1467   1.401   1_554  A
C1466      H1475   1.083       .  S
C1467      C1468   1.402       .  A
C1467      H1476   1.083       .  S
C1468      C1471   1.445       .  S
C1468      C1469   1.402       .  A
C1469      C1470   1.401   1_556  A
C1469      H1477   1.083       .  S
C1470      H1478   1.083       .  S
C1471      C1472   1.209       .  T
C1473      C1474   1.209       .  T
C1479      C1487   1.439       .  S
C1479      C1480   1.402       .  A
C1479      C1484   1.400       .  A
C1480      C1481   1.399       .  A
C1480      H1489   1.084       .  S
C1481      C1482   1.400       .  A
C1481      H1490   1.083       .  S
C1482      C1485   1.439       .  S
C1482      C1483   1.402       .  A
C1483      C1484   1.398       .  A
C1483      H1491   1.084       .  S
C1484      H1492   1.083       .  S
C1485      C1486   1.205       .  T
C1487      C1488   1.205       .  T
C1493      C1501   1.437       .  S
C1493      C1494   1.401       .  A
C1493      C1498   1.401       .  A
C1494      C1495   1.398       .  A
C1494      H1503   1.084       .  S
C1495      C1496   1.400       .  A
C1495      H1504   1.084       .  S
C1496      C1499   1.437       .  S
C1496      C1497   1.401       .  A
C1497      C1498   1.398       .  A
C1497      H1505   1.084       .  S
C1498      H1506   1.084       .  S
C1499      C1500   1.204       .  T
C1501      C1502   1.204       .  T
C1507      C1515   1.439       .  S
C1507      C1508   1.401       .  A
C1507      C1512   1.402       .  A
C1508      C1509   1.398   1_455  A
C1508      H1517   1.083       .  S
C1509      C1510   1.402       .  A
C1509      H1518   1.084       .  S
C1510      C1513   1.439       .  S
C1510      C1511   1.401       .  A
C1511      C1512   1.399   1_655  A
C1511      H1519   1.083       .  S
C1512      H1520   1.084       .  S
C1513      C1514   1.205       .  T
C1515      C1516   1.205       .  T
C1521      C1529   1.441       .  S
C1521      C1522   1.401       .  A
C1521      C1526   1.402       .  A
C1522      C1523   1.399       .  A
C1522      H1531   1.083       .  S
C1523      C1524   1.401       .  A
C1523      H1532   1.083       .  S
C1524      C1527   1.440       .  S
C1524      C1525   1.401       .  A
C1525      C1526   1.399       .  A
C1525      H1533   1.083       .  S
C1526      H1534   1.083       .  S
C1527      C1528   1.206       .  T
C1529      C1530   1.207       .  T
C1535      C1543   1.442       .  S
C1535      C1536   1.402       .  A
C1535      C1540   1.401       .  A
C1536      C1537   1.400   1_455  A
C1536      H1545   1.083       .  S
C1537      C1538   1.401       .  A
C1537      H1546   1.084       .  S
C1538      C1541   1.442       .  S
C1538      C1539   1.402       .  A
C1539      C1540   1.400   1_655  A
C1539      H1547   1.083       .  S
C1540      H1548   1.084       .  S
C1541      C1542   1.207       .  T
C1543      C1544   1.207       .  T
C1549      C1557   1.442       .  S
C1549      C1550   1.402       .  A
C1549      C1554   1.402       .  A
C1550      C1551   1.400       .  A
C1550      H1559   1.083       .  S
C1551      C1552   1.402       .  A
C1551      H1560   1.084       .  S
C1552      C1555   1.442       .  S
C1552      C1553   1.401       .  A
C1553      C1554   1.400       .  A
C1553      H1561   1.084       .  S
C1554      H1562   1.083       .  S
C1555      C1556   1.207       .  T
C1557      C1558   1.208       .  T
C1563      C1571   1.442       .  S
C1563      C1564   1.401       .  A
C1563      C1568   1.402       .  A
C1564      C1565   1.400       .  A
C1564      H1573   1.083       .  S
C1565      C1566   1.402       .  A
C1565      H1574   1.084       .  S
C1566      C1569   1.442       .  S
C1566      C1567   1.402       .  A
C1567      C1568   1.400       .  A
C1567      H1575   1.083       .  S
C1568      H1576   1.084       .  S
C1569      C1570   1.207       .  T
C1571      C1572   1.207       .  T
C1577      C1585   1.438       .  S
C1577      C1578   1.402       .  A
C1577      C1582   1.400       .  A
C1578      C1579   1.399       .  A
C1578      H1587   1.084       .  S
C1579      C1580   1.401       .  A
C1579      H1588   1.083       .  S
C1580      C1583   1.438       .  S
C1580      C1581   1.401       .  A
C1581      C1582   1.398       .  A
C1581      H1589   1.084       .  S
C1582      H1590   1.084       .  S
C1583      C1584   1.205       .  T
C1585      C1586   1.205       .  T
C1591      C1599   1.439       .  S
C1591      C1592   1.401       .  A
C1591      C1596   1.401       .  A
C1592      C1593   1.399       .  A
C1592      H1601   1.084       .  S
C1593      C1594   1.402       .  A
C1593      H1602   1.083       .  S
C1594      C1597   1.439       .  S
C1594      C1595   1.401       .  A
C1595      C1596   1.399       .  A
C1595      H1603   1.084       .  S
C1596      H1604   1.083       .  S
C1597      C1598   1.206       .  T
C1599      C1600   1.205       .  T
C1605      C1613   1.442       .  S
C1605      C1606   1.402   1_565  A
C1605      C1610   1.401       .  A
C1606      C1607   1.400   1_455  A
C1606      H1615   1.083       .  S
C1607      C1608   1.401       .  A
C1607      H1616   1.084       .  S
C1608      C1611   1.442       .  S
C1608      C1609   1.402   1_545  A
C1609      C1610   1.400   1_655  A
C1609      H1617   1.083       .  S
C1610      H1618   1.084       .  S
C1611      C1612   1.207       .  T
C1613      C1614   1.207       .  T
C1619      C1627   1.442       .  S
C1619      C1620   1.402   1_565  A
C1619      C1624   1.402       .  A
C1620      C1621   1.400       .  A
C1620      H1629   1.084       .  S
C1621      C1622   1.401       .  A
C1621      H1630   1.084       .  S
C1622      C1625   1.442       .  S
C1622      C1623   1.402   1_545  A
C1623      C1624   1.400       .  A
C1623      H1631   1.084       .  S
C1624      H1632   1.084       .  S
C1625      C1626   1.207       .  T
C1627      C1628   1.208       .  T
C1633      C1641   1.441       .  S
C1633      C1634   1.401       .  A
C1633      C1638   1.402       .  A
C1634      C1635   1.399       .  A
C1634      H1643   1.084       .  S
C1635      C1636   1.401       .  A
C1635      H1644   1.084       .  S
C1636      C1639   1.441       .  S
C1636      C1637   1.402       .  A
C1637      C1638   1.400       .  A
C1637      H1645   1.084       .  S
C1638      H1646   1.084       .  S
C1639      C1640   1.207       .  T
C1641      C1642   1.207       .  T
C1647      C1655   1.442       .  S
C1647      C1648   1.402       .  A
C1647      C1652   1.402       .  A
C1648      C1649   1.399       .  A
C1648      H1657   1.083       .  S
C1649      C1650   1.401       .  A
C1649      H1658   1.084       .  S
C1650      C1653   1.442       .  S
C1650      C1651   1.402       .  A
C1651      C1652   1.400       .  A
C1651      H1659   1.083       .  S
C1652      H1660   1.084       .  S
C1653      C1654   1.207       .  T
C1655      C1656   1.207       .  T
C1661      C1669   1.442       .  S
C1661      C1662   1.402       .  A
C1661      C1666   1.402       .  A
C1662      C1663   1.400       .  A
C1662      H1671   1.084       .  S
C1663      C1664   1.401       .  A
C1663      H1672   1.084       .  S
C1664      C1667   1.442       .  S
C1664      C1665   1.402       .  A
C1665      C1666   1.400       .  A
C1665      H1673   1.084       .  S
C1666      H1674   1.083       .  S
C1667      C1668   1.207       .  T
C1669      C1670   1.207       .  T
C1675      C1683   1.439       .  S
C1675      C1676   1.401       .  A
C1675      C1680   1.401       .  A
C1676      C1677   1.399       .  A
C1676      H1685   1.084       .  S
C1677      C1678   1.401       .  A
C1677      H1686   1.083       .  S
C1678      C1681   1.438       .  S
C1678      C1679   1.401       .  A
C1679      C1680   1.398       .  A
C1679      H1687   1.084       .  S
C1680      H1688   1.084       .  S
C1681      C1682   1.205       .  T
C1683      C1684   1.205       .  T
C1689      C1697   1.438       .  S
C1689      C1690   1.402       .  A
C1689      C1694   1.400       .  A
C1690      C1691   1.399       .  A
C1690      H1699   1.084       .  S
C1691      C1692   1.401       .  A
C1691      H1700   1.084       .  S
C1692      C1695   1.438   1_545  S
C1692      C1693   1.401       .  A
C1693      C1694   1.398       .  A
C1693      H1701   1.084       .  S
C1694      H1702   1.084       .  S
C1695      C1696   1.205       .  T
C1697      C1698   1.205       .  T
C1703      C1711   1.442       .  S
C1703      C1704   1.403       .  A
C1703      C1708   1.401       .  A
C1704      C1705   1.400       .  A
C1704      H1713   1.084       .  S
C1705      C1706   1.401       .  A
C1705      H1714   1.083       .  S
C1706      C1709   1.442       .  S
C1706      C1707   1.402       .  A
C1707      C1708   1.400       .  A
C1707      H1715   1.084       .  S
C1708      H1716   1.083       .  S
C1709      C1710   1.207       .  T
C1711      C1712   1.207       .  T
C1717      C1725   1.443       .  S
C1717      C1718   1.402       .  A
C1717      C1722   1.402       .  A
C1718      C1719   1.400   1_554  A
C1718      H1727   1.084       .  S
C1719      C1720   1.402       .  A
C1719      H1728   1.083       .  S
C1720      C1723   1.443       .  S
C1720      C1721   1.402       .  A
C1721      C1722   1.400   1_556  A
C1721      H1729   1.083       .  S
C1722      H1730   1.083       .  S
C1723      C1724   1.208       .  T
C1725      C1726   1.208       .  T
C1731      C1739   1.442       .  S
C1731      C1732   1.401       .  A
C1731      C1736   1.402       .  A
C1732      C1733   1.400       .  A
C1732      H1741   1.083       .  S
C1733      C1734   1.402       .  A
C1733      H1742   1.084       .  S
C1734      C1737   1.442       .  S
C1734      C1735   1.401       .  A
C1735      C1736   1.400       .  A
C1735      H1743   1.083       .  S
C1736      H1744   1.084       .  S
C1737      C1738   1.207       .  T
C1739      C1740   1.207       .  T
C1745      C1753   1.443       .  S
C1745      C1746   1.402       .  A
C1745      C1750   1.402       .  A
C1746      C1747   1.401       .  A
C1746      H1755   1.083       .  S
C1747      C1748   1.402       .  A
C1747      H1756   1.084       .  S
C1748      C1751   1.443       .  S
C1748      C1749   1.401       .  A
C1749      C1750   1.400       .  A
C1749      H1757   1.083       .  S
C1750      H1758   1.084       .  S
C1751      C1752   1.208       .  T
C1753      C1754   1.208       .  T
C1759      C1767   1.442       .  S
C1759      C1760   1.402       .  A
C1759      C1764   1.402       .  A
C1760      C1761   1.400   1_554  A
C1760      H1769   1.083       .  S
C1761      C1762   1.402       .  A
C1761      H1770   1.083       .  S
C1762      C1765   1.442       .  S
C1762      C1763   1.402       .  A
C1763      C1764   1.400   1_556  A
C1763      H1771   1.083       .  S
C1764      H1772   1.083       .  S
C1765      C1766   1.207       .  T
C1767      C1768   1.207       .  T
C1773      C1781   1.437   1_565  S
C1773      C1774   1.401       .  A
C1773      C1778   1.401       .  A
C1774      C1775   1.398       .  A
C1774      H1783   1.084       .  S
C1775      C1776   1.401       .  A
C1775      H1784   1.084       .  S
C1776      C1779   1.437       .  S
C1776      C1777   1.401       .  A
C1777      C1778   1.398       .  A
C1777      H1785   1.084       .  S
C1778      H1786   1.084       .  S
C1779      C1780   1.204       .  T
C1781      C1782   1.204       .  T
C1787      C1795   1.439       .  S
C1787      C1788   1.402       .  A
C1787      C1792   1.401       .  A
C1788      C1789   1.399       .  A
C1788      H1797   1.084       .  S
C1789      C1790   1.401       .  A
C1789      H1798   1.084       .  S
C1790      C1793   1.439       .  S
C1790      C1791   1.401       .  A
C1791      C1792   1.398       .  A
C1791      H1799   1.084       .  S
C1792      H1800   1.084       .  S
C1793      C1794   1.206       .  T
C1795      C1796   1.206       .  T
C1801      C1809   1.442       .  S
C1801      C1802   1.401       .  A
C1801      C1806   1.402       .  A
C1802      C1803   1.400       .  A
C1802      H1811   1.083       .  S
C1803      C1804   1.403       .  A
C1803      H1812   1.084       .  S
C1804      C1807   1.442       .  S
C1804      C1805   1.401       .  A
C1805      C1806   1.400       .  A
C1805      H1813   1.083       .  S
C1806      H1814   1.084       .  S
C1807      C1808   1.207       .  T
C1809      C1810   1.207       .  T
C1815      C1823   1.442       .  S
C1815      C1816   1.402       .  A
C1815      C1820   1.401       .  A
C1816      C1817   1.400       .  A
C1816      H1825   1.084       .  S
C1817      C1818   1.402       .  A
C1817      H1826   1.083       .  S
C1818      C1821   1.443       .  S
C1818      C1819   1.402       .  A
C1819      C1820   1.400       .  A
C1819      H1827   1.084       .  S
C1820      H1828   1.084       .  S
C1821      C1822   1.208       .  T
C1823      C1824   1.208       .  T
C1829      C1837   1.442       .  S
C1829      C1830   1.402       .  A
C1829      C1834   1.402       .  A
C1830      C1831   1.400       .  A
C1830      H1839   1.084       .  S
C1831      C1832   1.402       .  A
C1831      H1840   1.084       .  S
C1832      C1835   1.442       .  S
C1832      C1833   1.402       .  A
C1833      C1834   1.400       .  A
C1833      H1841   1.084       .  S
C1834      H1842   1.083       .  S
C1835      C1836   1.207       .  T
C1837      C1838   1.207       .  T
C1843      C1851   1.441       .  S
C1843      C1844   1.402       .  A
C1843      C1848   1.401       .  A
C1844      C1845   1.399       .  A
C1844      H1853   1.083       .  S
C1845      C1846   1.401       .  A
C1845      H1854   1.084       .  S
C1846      C1849   1.440       .  S
C1846      C1847   1.401       .  A
C1847      C1848   1.399       .  A
C1847      H1855   1.083       .  S
C1848      H1856   1.084       .  S
C1849      C1850   1.206       .  T
C1851      C1852   1.206       .  T
C1857      C1865   1.441       .  S
C1857      C1858   1.402       .  A
C1857      C1862   1.401       .  A
C1858      C1859   1.400       .  A
C1858      H1867   1.084       .  S
C1859      C1860   1.401       .  A
C1859      H1868   1.083       .  S
C1860      C1863   1.441       .  S
C1860      C1861   1.402       .  A
C1861      C1862   1.399       .  A
C1861      H1869   1.084       .  S
C1862      H1870   1.083       .  S
C1863      C1864   1.207       .  T
C1865      C1866   1.207       .  T
C1871      C1879   1.443       .  S
C1871      C1872   1.402       .  A
C1871      C1876   1.402       .  A
C1872      C1873   1.400       .  A
C1872      H1881   1.083       .  S
C1873      C1874   1.402       .  A
C1873      H1882   1.084       .  S
C1874      C1877   1.442       .  S
C1874      C1875   1.402       .  A
C1875      C1876   1.400       .  A
C1875      H1883   1.083       .  S
C1876      H1884   1.084       .  S
C1877      C1878   1.207       .  T
C1879      C1880   1.208       .  T
C1885      C1893   1.438       .  S
C1885      C1886   1.401       .  A
C1885      C1890   1.401       .  A
C1886      C1887   1.398       .  A
C1886      H1895   1.084       .  S
C1887      C1888   1.401       .  A
C1887      H1896   1.084       .  S
C1888      C1891   1.439   1_565  S
C1888      C1889   1.402       .  A
C1889      C1890   1.399       .  A
C1889      H1897   1.084       .  S
C1890      H1898   1.084       .  S
C1891      C1892   1.205       .  T
C1893      C1894   1.205       .  T
C1899      C1907   1.440       .  S
C1899      C1900   1.401       .  A
C1899      C1904   1.402       .  A
C1900      C1901   1.398       .  A
C1900      H1909   1.084       .  S
C1901      C1902   1.401       .  A
C1901      H1910   1.083       .  S
C1902      C1905   1.439       .  S
C1902      C1903   1.402       .  A
C1903      C1904   1.400       .  A
C1903      H1911   1.084       .  S
C1904      H1912   1.083       .  S
C1905      C1906   1.206       .  T
C1907      C1908   1.206       .  T
C1913      C1921   1.441       .  S
C1913      C1914   1.403       .  A
C1913      C1918   1.400       .  A
C1914      C1915   1.399       .  A
C1914      H1923   1.084       .  S
C1915      C1916   1.400       .  A
C1915      H1924   1.083       .  S
C1916      C1919   1.441       .  S
C1916      C1917   1.402       .  A
C1917      C1918   1.399       .  A
C1917      H1925   1.084       .  S
C1918      H1926   1.083       .  S
C1919      C1920   1.206       .  T
C1921      C1922   1.206       .  T
C1927      C1935   1.438       .  S
C1927      C1928   1.401       .  A
C1927      C1932   1.401       .  A
C1928      C1929   1.398       .  A
C1928      H1937   1.084       .  S
C1929      C1930   1.401       .  A
C1929      H1938   1.083       .  S
C1930      C1933   1.438       .  S
C1930      C1931   1.401       .  A
C1931      C1932   1.399       .  A
C1931      H1939   1.084       .  S
C1932      H1940   1.083       .  S
C1933      C1934   1.205       .  T
C1935      C1936   1.205       .  T
C1941      C1949   1.444       .  S
C1941      C1942   1.402       .  A
C1941      C1946   1.402       .  A
C1942      C1943   1.401   1_554  A
C1942      H1951   1.083       .  S
C1943      C1944   1.402       .  A
C1943      H1952   1.083       .  S
C1944      C1947   1.444       .  S
C1944      C1945   1.402       .  A
C1945      C1946   1.400   1_556  A
C1945      H1953   1.083       .  S
C1946      H1954   1.083       .  S
C1947      C1948   1.209       .  T
C1949      C1950   1.208       .  T
C1955      C1963   1.441       .  S
C1955      C1956   1.402       .  A
C1955      C1960   1.401       .  A
C1956      C1957   1.400       .  A
C1956      H1965   1.083       .  S
C1957      C1958   1.401       .  A
C1957      H1966   1.084       .  S
C1958      C1961   1.442       .  S
C1958      C1959   1.402       .  A
C1959      C1960   1.400       .  A
C1959      H1967   1.083       .  S
C1960      H1968   1.084       .  S
C1961      C1962   1.207       .  T
C1963      C1964   1.207       .  T
C1969      C1977   1.442       .  S
C1969      C1970   1.402       .  A
C1969      C1974   1.402       .  A
C1970      C1971   1.400       .  A
C1970      H1979   1.084       .  S
C1971      C1972   1.402       .  A
C1971      H1980   1.083       .  S
C1972      C1975   1.442       .  S
C1972      C1973   1.401       .  A
C1973      C1974   1.399       .  A
C1973      H1981   1.084       .  S
C1974      H1982   1.083       .  S
C1975      C1976   1.207       .  T
C1977      C1978   1.207       .  T
C1983      C1991   1.444       .  S
C1983      C1984   1.402       .  A
C1983      C1988   1.402       .  A
C1984      C1985   1.401       .  A
C1984      H1993   1.083       .  S
C1985      C1986   1.402       .  A
C1985      H1994   1.083       .  S
C1986      C1989   1.444       .  S
C1986      C1987   1.402       .  A
C1987      C1988   1.400       .  A
C1987      H1995   1.084       .  S
C1988      H1996   1.083       .  S
C1989      C1990   1.209       .  T
C1991      C1992   1.209       .  T
C1997      C2005   1.442       .  S
C1997      C1998   1.402       .  A
C1997      C2002   1.402       .  A
C1998      C1999   1.400   1_554  A
C1998      H2007   1.084       .  S
C1999      C2000   1.402       .  A
C1999      H2008   1.083       .  S
C2000      C2003   1.442       .  S
C2000      C2001   1.402       .  A
C2001      C2002   1.400   1_556  A
C2001      H2009   1.084       .  S
C2002      H2010   1.083       .  S
C2003      C2004   1.207       .  T
C2005      C2006   1.207       .  T
C2011      C2019   1.439       .  S
C2011      C2012   1.401       .  A
C2011      C2016   1.402       .  A
C2012      C2013   1.399       .  A
C2012      H2021   1.084       .  S
C2013      C2014   1.402       .  A
C2013      H2022   1.084       .  S
C2014      C2017   1.439       .  S
C2014      C2015   1.400       .  A
C2015      C2016   1.399       .  A
C2015      H2023   1.084       .  S
C2016      H2024   1.084       .  S
C2017      C2018   1.206       .  T
C2019      C2020   1.206       .  T
C2025      C2033   1.439   1_545  S
C2025      C2026   1.400       .  A
C2025      C2030   1.402       .  A
C2026      C2027   1.399       .  A
C2026      H2035   1.084       .  S
C2027      C2028   1.402       .  A
C2027      H2036   1.083       .  S
C2028      C2031   1.439       .  S
C2028      C2029   1.400       .  A
C2029      C2030   1.398       .  A
C2029      H2037   1.084       .  S
C2030      H2038   1.083       .  S
C2031      C2032   1.205       .  T
C2033      C2034   1.205       .  T
C2039      C2047   1.442       .  S
C2039      C2040   1.400       .  A
C2039      C2044   1.403       .  A
C2040      C2041   1.399       .  A
C2040      H2049   1.083       .  S
C2041      C2042   1.402       .  A
C2041      H2050   1.084       .  S
C2042      C2045   1.442       .  S
C2042      C2043   1.401       .  A
C2043      C2044   1.401       .  A
C2043      H2051   1.083       .  S
C2044      H2052   1.084       .  S
C2045      C2046   1.207       .  T
C2047      C2048   1.207       .  T
C2053      C2061   1.439       .  S
C2053      C2054   1.401       .  A
C2053      C2058   1.401       .  A
C2054      C2055   1.399       .  A
C2054      H2063   1.084       .  S
C2055      C2056   1.402       .  A
C2055      H2064   1.083       .  S
C2056      C2059   1.439       .  S
C2056      C2057   1.401       .  A
C2057      C2058   1.398       .  A
C2057      H2065   1.084       .  S
C2058      H2066   1.083       .  S
C2059      C2060   1.206       .  T
C2061      C2062   1.205       .  T
C2067      C2075   1.443       .  S
C2067      C2068   1.402       .  A
C2067      C2072   1.402       .  A
C2068      C2069   1.400       .  A
C2068      H2077   1.083       .  S
C2069      C2070   1.402       .  A
C2069      H2078   1.083       .  S
C2070      C2073   1.443       .  S
C2070      C2071   1.402       .  A
C2071      C2072   1.400       .  A
C2071      H2079   1.083       .  S
C2072      H2080   1.084       .  S
C2073      C2074   1.208       .  T
C2075      C2076   1.208       .  T
