geometry optimzed in LAMMPS
_audit_creation_date              2020-11-30 
_audit_creation_method            'lammps2cif' 
_symmetry_space_group_name_H-M    'P1' 
_symmetry_Int_Tables_number       1 
_symmetry_cell_setting            triclinic 
loop_ 
_symmetry_equiv_pos_as_xyz 
  x,y,z 
_cell_length_a                    41.65613259125108 
_cell_length_b                    40.280177251801724 
_cell_length_c                    37.16300984860603 
_cell_angle_alpha                 90.3252121157416 
_cell_angle_beta                  90.53369677833258 
_cell_angle_gamma                 89.93195658623486 
loop_ 
_atom_site_label 
_atom_site_type_symbol 
_atom_site_fract_x 
_atom_site_fract_y 
_atom_site_fract_z 
_atom_site_charge 
Fe1        Fe  0.88460244  0.04430449  0.11029263     1.65780
Fe2        Fe  0.88431474  0.09717778  0.04127820     1.73250
Fe3        Fe  0.83464273  0.10872864  0.11028115     1.54420
O4          O  0.81262004  0.06601652  0.13323790    -0.82510
O5          O  0.89559828  0.14120318  0.06371131    -0.80810
O6          O  0.83881071  0.02292489  0.11116081    -0.85010
O7          O  0.87882085  0.06425031  0.16279490    -0.79870
O8          O  0.80602195  0.10047194  0.06811394    -0.81640
O9          O  0.93070207  0.08330020  0.05340917    -0.84390
C10         C  0.87308624  0.09349252  0.17481304     0.96380
C11         C  0.81324333  0.03520681  0.12443274     1.03820
O12         O  0.86751732  0.08288801  0.08697794    -1.13370
O13         O  0.87502537  0.05351043  0.01711109    -0.75800
O14         O  0.89116063  0.01932635  0.06037955    -0.79290
O15         O  0.86325850  0.11665664  0.15450639    -0.79980
C16         C  0.88275585  0.02496589  0.02763568     0.95280
O17         O  0.93016062  0.06652783  0.11023452    -0.77940
O18         O  0.83913257  0.11231742  0.02320133    -0.83130
C19         C  0.87443749  0.16268234  0.06896472     0.97900
C20         C  0.81124846  0.10670805  0.03552457     1.03820
O21         O  0.84930456  0.15475990  0.08653191    -0.78770
C22         C  0.94420692  0.08042742  0.08395244     1.02120
Fe23       Fe  0.62355871  0.18926586  0.88860796     1.65780
Fe24       Fe  0.62051392  0.14013848  0.96323179     1.73250
Fe25       Fe  0.67271660  0.12254759  0.89569952     1.54420
O26         O  0.65015337  0.11743579  0.84727797    -0.82510
O27         O  0.66496155  0.13915872  0.98747879    -0.80810
O28         O  0.62752145  0.16647810  0.83770851    -0.85010
O29         O  0.66925613  0.20881542  0.88492632    -0.79870
O30         O  0.65187983  0.07688588  0.91079925    -0.81640
O31         O  0.61596071  0.18693238  0.98120841    -0.84390
C32         C  0.69678002  0.19616639  0.88007693     0.96380
C33         C  0.63726738  0.13830960  0.82651080     1.03820
O34         O  0.63898718  0.15063061  0.91594051    -1.13370
O35         O  0.57557342  0.13872631  0.94022770    -0.75800
O36         O  0.57680113  0.17053945  0.89069311    -0.79290
O37         O  0.70010514  0.16452632  0.87953131    -0.79980
C38         C  0.56312357  0.14960701  0.91122089     0.95280
O39         O  0.61974675  0.21977837  0.93434879    -0.77940
O40         O  0.62237380  0.09119565  0.95728085    -0.83130
C41         C  0.69214812  0.13155295  0.97470963     0.97900
C42         C  0.63442677  0.06941572  0.93754971     1.03820
O43         O  0.69737522  0.12441806  0.94217717    -0.78770
C44         C  0.61842442  0.21527396  0.96812724     1.02120
Fe45       Fe  0.88272434  0.29608380  0.88615092     1.65780
Fe46       Fe  0.88253200  0.33999379  0.96360231     1.73250
Fe47       Fe  0.83276900  0.36105805  0.89793780     1.54410
O48         O  0.84451499  0.35810604  0.84431935    -0.82510
O49         O  0.83649249  0.33079298  0.98300371    -0.80810
O50         O  0.88707576  0.32582674  0.84068350    -0.85010
O51         O  0.83623882  0.28027213  0.87150550    -0.79870
O52         O  0.86196929  0.40326859  0.90588568    -0.81640
O53         O  0.89494357  0.29258433  0.97543311    -0.84390
C54         C  0.80787907  0.28963497  0.87979856     0.96380
C55         C  0.86808540  0.34696812  0.82680475     1.03820
O56         O  0.86661224  0.33231660  0.91508342    -1.13370
O57         O  0.92688175  0.34914051  0.94179280    -0.75800
O58         O  0.93029066  0.31079127  0.89786443    -0.79290
O59         O  0.80263662  0.31896597  0.89222152    -0.79980
C60         C  0.94168037  0.33554631  0.91569004     0.95280
O61         O  0.87874910  0.26234320  0.92903591    -0.77940
O62         O  0.87419664  0.38969358  0.96224838    -0.83130
C63         C  0.81284019  0.34834539  0.97241136     0.97900
C64         C  0.87251236  0.41089402  0.93743699     1.03820
O65         O  0.81709509  0.36976493  0.94876784    -0.78770
C66         C  0.88566508  0.26548806  0.96226834     1.02120
Fe67       Fe  0.62380000  0.43989007  0.11383275     1.65780
Fe68       Fe  0.62143029  0.38772046  0.04485248     1.73250
Fe69       Fe  0.67387891  0.37527074  0.11053913     1.54410
O70         O  0.69810702  0.41713503  0.13301276    -0.82510
O71         O  0.60681391  0.34638936  0.07064685    -0.80810
O72         O  0.66992187  0.46080290  0.11552480    -0.85010
O73         O  0.62985759  0.41844381  0.16572640    -0.79870
O74         O  0.69994996  0.38316631  0.06634123    -0.81640
O75         O  0.57721232  0.40889300  0.05507821    -0.84390
C76         C  0.63711813  0.38916175  0.17665374     0.96380
C77         C  0.69650867  0.44823955  0.12610987     1.03820
O78         O  0.64024976  0.40167918  0.08980824    -1.13370
O79         O  0.63579104  0.42973793  0.02089592    -0.75800
O80         O  0.61793561  0.46456955  0.06350603    -0.79290
O81         O  0.64839147  0.36706736  0.15599753    -0.79980
C82         C  0.62787326  0.45850078  0.03135081     0.95280
O83         O  0.57716717  0.41887222  0.11281717    -0.77940
O84         O  0.66383280  0.36462979  0.02724977    -0.83130
C85         C  0.62811916  0.32443509  0.07121953     0.97900
C86         C  0.69280175  0.36800223  0.03772490     1.03820
O87         O  0.65506681  0.33050128  0.08693895    -0.78770
C88         C  0.56250977  0.40854273  0.08464141     1.02120
Fe89       Fe  0.88596312  0.18434082  0.38581182     1.65780
Fe90       Fe  0.88146590  0.13673553  0.45831637     1.73250
Fe91       Fe  0.83096272  0.12476715  0.38949629     1.54420
O92         O  0.81148478  0.16768807  0.36407179    -0.82510
O93         O  0.89043105  0.08979988  0.44056526    -0.80810
O94         O  0.84170183  0.20947765  0.38232665    -0.85010
O95         O  0.87874763  0.16162520  0.33478742    -0.79870
O96         O  0.80394477  0.13771906  0.43107168    -0.81640
O97         O  0.92885701  0.14859173  0.44714902    -0.84390
C98         C  0.87058189  0.13231166  0.32482325     0.96380
C99         C  0.81459870  0.19875167  0.37083657     1.03820
O100        O  0.86612605  0.14863600  0.41104164    -1.13370
O101        O  0.87229094  0.18288378  0.47736396    -0.75800
O102        O  0.89528315  0.21127867  0.43424711    -0.79290
O103        O  0.85789134  0.11182560  0.34610676    -0.79980
C104        C  0.88430483  0.20952160  0.46630098     0.95280
O105        O  0.92953646  0.15852618  0.38887386    -0.77940
O106        O  0.83618003  0.12380759  0.47592624    -0.83130
C107        C  0.86808263  0.06974083  0.43327595     0.97900
C108        C  0.80840815  0.13015933  0.46345961     1.03820
O109        O  0.84330772  0.07911031  0.41532755    -0.78770
C110        C  0.94281962  0.14661548  0.41704538     1.02120
Fe111      Fe  0.62421430  0.04719388  0.61544790     1.65780
Fe112      Fe  0.62822703  0.09229687  0.54056780     1.73250
Fe113      Fe  0.67789012  0.10984571  0.60825867     1.54420
O114        O  0.65869898  0.11339212  0.65883602    -0.82510
O115        O  0.67078109  0.07686005  0.52024684    -0.80810
O116        O  0.62039018  0.07476366  0.66318724    -0.85010
O117        O  0.66952785  0.02725210  0.63201424    -0.79870
O118        O  0.65511180  0.15490096  0.59406051    -0.81640
O119        O  0.60761160  0.04756795  0.53025692    -0.84390
C120        C  0.69864284  0.03768887  0.63136250     0.96380
C121        C  0.63718829  0.09839643  0.67641538     1.03820
O122        O  0.64347881  0.08314343  0.58908365    -1.13370
O123        O  0.58752580  0.10817087  0.56317458    -0.75800
O124        O  0.57759540  0.06540247  0.59952674    -0.79290
O125        O  0.70451252  0.06765793  0.62263752    -0.79980
C126        C  0.56834739  0.09136554  0.58192532     0.95280
O127        O  0.62862956  0.01575852  0.57100978    -0.77940
O128        O  0.64423986  0.13954017  0.53825114    -0.83130
C129        C  0.69652059  0.09117490  0.53022156     0.97900
C130        C  0.64801042  0.16183508  0.56153223     1.03820
O131        O  0.69984466  0.10753427  0.55945691    -0.78770
C132        C  0.62018990  0.02054309  0.53859628     1.02120
Fe133      Fe  0.62731954  0.29314669  0.38443492     1.65780
Fe134      Fe  0.62556557  0.34087346  0.45863600     1.73250
Fe135      Fe  0.67493460  0.35952994  0.39049069     1.54420
O136        O  0.69888342  0.31861323  0.36501066    -0.82510
O137        O  0.61448071  0.38833905  0.44601551    -0.80810
O138        O  0.67356258  0.27338169  0.38340002    -0.85010
O139        O  0.63406449  0.31634718  0.33406737    -0.79870
O140        O  0.70484089  0.35187852  0.43110519    -0.81640
O141        O  0.57902619  0.32962250  0.44276223    -0.84390
C142        C  0.63803118  0.34659436  0.32487399     0.96380
C143        C  0.69896304  0.28736243  0.37196773     1.03820
O144        O  0.64282868  0.33102424  0.41156271    -1.13370
O145        O  0.63475214  0.29503055  0.47704977    -0.75800
O146        O  0.61899369  0.26361716  0.43092328    -0.79290
O147        O  0.64586449  0.36881007  0.34741775    -0.79980
C148        C  0.62741114  0.26728327  0.46392526     0.95280
O149        O  0.58200895  0.31469927  0.38491924    -0.77940
O150        O  0.67100878  0.35320764  0.47718366    -0.83130
C151        C  0.63534965  0.40977177  0.43931970     0.97900
C152        C  0.69879260  0.35564109  0.46382027     1.03820
O153        O  0.65855778  0.40337690  0.41790655    -0.78770
C154        C  0.56738196  0.32849808  0.41099086     1.02120
Fe155      Fe  0.88543926  0.44080414  0.61638400     1.65780
Fe156      Fe  0.88794083  0.39258535  0.54257875     1.73250
Fe157      Fe  0.83511414  0.37653339  0.60861026     1.54410
O158        O  0.86173765  0.36552152  0.65390989    -0.82510
O159        O  0.84310068  0.38061750  0.52113462    -0.80810
O160        O  0.87780587  0.41713542  0.66615163    -0.85010
O161        O  0.83934337  0.46199608  0.61755290    -0.79870
O162        O  0.84988215  0.33204799  0.58123874    -0.81640
O163        O  0.88162250  0.43842280  0.52264988    -0.84390
C164        C  0.81341273  0.44890344  0.62892265     0.96380
C165        C  0.87166223  0.38744299  0.67606649     1.03820
O166        O  0.86923757  0.40364789  0.58886626    -1.13370
O167        O  0.93464670  0.40128054  0.56022502    -0.75800
O168        O  0.93093289  0.41800735  0.61717930    -0.79290
O169        O  0.81241486  0.41755492  0.63468361    -0.79980
C170        C  0.94567943  0.40243002  0.59227690     0.95280
O171        O  0.89420129  0.47035401  0.56973429    -0.77940
O172        O  0.89590656  0.34641641  0.55809026    -0.83130
C173        C  0.81471936  0.38138076  0.53332025     0.97900
C174        C  0.87392365  0.32572748  0.56108475     1.03820
O175        O  0.80777164  0.38693591  0.56573057    -0.78770
C176        C  0.88767392  0.46639418  0.53615652     1.02120
Fe177      Fe  0.12536567  0.18750651  0.11113833     1.65780
Fe178      Fe  0.12668198  0.13647037  0.04044750     1.73250
Fe179      Fe  0.17979507  0.12724572  0.10712196     1.54420
O180        O  0.20017132  0.16999461  0.13147097    -0.82510
O181        O  0.11761257  0.09146545  0.06242515    -0.80810
O182        O  0.17009594  0.21178685  0.11374461    -0.85010
O183        O  0.13242235  0.16542126  0.16236075    -0.79870
O184        O  0.20508284  0.13951556  0.06397369    -0.81640
O185        O  0.08059946  0.15140923  0.05178894    -0.84390
C186        C  0.14121468  0.13642766  0.17266212     0.96380
C187        C  0.19735313  0.20082569  0.12429354     1.03820
O188        O  0.14412047  0.15084588  0.08629315    -1.13370
O189        O  0.13497476  0.18038542  0.01772531    -0.75800
O190        O  0.11777281  0.21332377  0.06176098    -0.79290
O191        O  0.15436605  0.11565835  0.15174672    -0.79980
C192        C  0.12625137  0.20845745  0.02889656     0.95280
O193        O  0.08070003  0.16260218  0.10948410    -0.77940
O194        O  0.17115665  0.12197915  0.02169495    -0.83130
C195        C  0.14041137  0.07146535  0.06767786     0.97900
C196        C  0.19882503  0.13157788  0.03185285     1.03820
O197        O  0.16638602  0.08126797  0.08290094    -0.78770
C198        C  0.06697805  0.14990808  0.08182570     1.02120
Fe199      Fe  0.38364553  0.04305802  0.88651567     1.65780
Fe200      Fe  0.38470027  0.08960194  0.96349687     1.73250
Fe201      Fe  0.33387896  0.10970255  0.89606334     1.54420
O202        O  0.35366880  0.11343997  0.84697043    -0.82510
O203        O  0.34038138  0.08631444  0.98627060    -0.80810
O204        O  0.38292478  0.06830893  0.83737932    -0.85010
O205        O  0.33766856  0.02409390  0.87779766    -0.79870
O206        O  0.35874377  0.15397981  0.91009185    -0.81640
O207        O  0.39364303  0.04271505  0.97851505    -0.84390
C208        C  0.30939803  0.03631992  0.87822577     0.96380
C209        C  0.37054201  0.09546435  0.82687551     1.03820
O210        O  0.36715237  0.08045589  0.91521867    -1.13370
O211        O  0.42907938  0.09580471  0.94053792    -0.75800
O212        O  0.43056364  0.06136888  0.89282122    -0.79290
O213        O  0.30467279  0.06772489  0.88207988    -0.79980
C214        C  0.44268279  0.08444953  0.91246489     0.95280
O215        O  0.38510011  0.01095847  0.93099214    -0.77940
O216        O  0.37827451  0.13825940  0.96233985    -0.83130
C217        C  0.31470006  0.09918840  0.97427424     0.97900
C218        C  0.37233695  0.16054987  0.94023005     1.03820
O219        O  0.31108873  0.11059410  0.94302265    -0.78770
C220        C  0.38863499  0.01483377  0.96477908     1.02120
Fe221      Fe  0.12378073  0.43979278  0.88640614     1.65780
Fe222      Fe  0.12237573  0.39360234  0.96307890     1.73250
Fe223      Fe  0.17206856  0.37188624  0.89558924     1.54420
O224        O  0.15374299  0.36946119  0.84433319    -0.82510
O225        O  0.16707021  0.39626151  0.98696602    -0.80810
O226        O  0.12490572  0.41535366  0.83665675    -0.85010
O227        O  0.17050693  0.45769710  0.87979106    -0.79870
O228        O  0.14595840  0.32849610  0.90834662    -0.81640
O229        O  0.11447265  0.44085601  0.97818431    -0.84390
C230        C  0.19825085  0.44406635  0.87930869     0.96380
C231        C  0.13751533  0.38882924  0.82470470     1.03820
O232        O  0.13957065  0.40203706  0.91478720    -1.13370
O233        O  0.07763709  0.38845733  0.93993702    -0.75800
O234        O  0.07636600  0.42172743  0.89150244    -0.79290
O235        O  0.20177659  0.41258084  0.88260456    -0.79980
C236        C  0.06385770  0.39954622  0.91171542     0.95280
O237        O  0.12225524  0.47225960  0.93067160    -0.77940
O238        O  0.12745245  0.34447993  0.96097015    -0.83130
C239        C  0.19190154  0.38114230  0.97583036     0.97900
C240        C  0.13293541  0.32208159  0.93849922     1.03820
O241        O  0.19469330  0.37011128  0.94405462    -0.78770
C242        C  0.11881892  0.46863009  0.96429205     1.02120
Fe243      Fe  0.38483389  0.29409440  0.11194931     1.65780
Fe244      Fe  0.38586076  0.34615729  0.04381749     1.73250
Fe245      Fe  0.33829381  0.36044720  0.11231537     1.54420
O246        O  0.31460679  0.31864382  0.13600821    -0.82510
O247        O  0.40144408  0.38689983  0.07017054    -0.80810
O248        O  0.33856004  0.27435890  0.11199186    -0.85010
O249        O  0.37729024  0.31383119  0.16461478    -0.79870
O250        O  0.30775427  0.35450665  0.07201331    -0.81640
O251        O  0.43060045  0.32673329  0.05518013    -0.84390
C252        C  0.37459731  0.34397650  0.17535133     0.96380
C253        C  0.31374803  0.28798814  0.12580825     1.03820
O254        O  0.36798270  0.33210125  0.08818425    -1.13370
O255        O  0.37264464  0.30399279  0.01902445    -0.75800
O256        O  0.39222407  0.27033776  0.06097794    -0.79290
O257        O  0.37062189  0.36679521  0.15282360    -0.79980
C258        C  0.38357620  0.27610702  0.02814825     0.95280
O259        O  0.43082452  0.31627561  0.11288934    -0.77940
O260        O  0.34112823  0.36647701  0.02708761    -0.83130
C261        C  0.38114732  0.40938087  0.07022767     0.97900
C262        C  0.31297746  0.36309986  0.04017940     1.03820
O263        O  0.35491890  0.40463666  0.08694707    -0.78770
C264        C  0.44460788  0.32857392  0.08550956     1.02120
Fe265      Fe  0.12508614  0.04325506  0.38302026     1.65780
Fe266      Fe  0.12225925  0.09423107  0.45462788     1.73250
Fe267      Fe  0.17331356  0.10852547  0.38835113     1.54420
O268        O  0.19793334  0.06754551  0.36453147    -0.82510
O269        O  0.10847948  0.13912790  0.43522164    -0.80810
O270        O  0.17146785  0.02311068  0.38183836    -0.85010
O271        O  0.13120300  0.06540705  0.33177484    -0.79870
O272        O  0.19926057  0.09816071  0.43218775    -0.81640
O273        O  0.07747642  0.07577884  0.44153702    -0.84390
C274        C  0.13760642  0.09490640  0.32122626     0.96380
C275        C  0.19735270  0.03630933  0.37073100     1.03820
O276        O  0.13996314  0.08197797  0.40830717    -1.13370
O277        O  0.13604549  0.04994898  0.47604016    -0.75800
O278        O  0.11883467  0.01633185  0.43186474    -0.79290
O279        O  0.14729335  0.11743384  0.34268551    -0.79980
C280        C  0.12901365  0.02131324  0.46422454     0.95280
O281        O  0.07903388  0.06416166  0.38327132    -0.77940
O282        O  0.16475756  0.11537262  0.47276545    -0.83130
C283        C  0.12967429  0.16103085  0.43056504     0.97900
C284        C  0.19318557  0.11233066  0.46142692     1.03820
O285        O  0.15521671  0.15346164  0.41307282    -0.78770
C286        C  0.06446548  0.07583436  0.41055351     1.02120
Fe287      Fe  0.38417721  0.18721040  0.61765449     1.65780
Fe288      Fe  0.37938715  0.14348717  0.53926295     1.73250
Fe289      Fe  0.33639979  0.11892083  0.60938790     1.54410
O290        O  0.35542719  0.12011671  0.66020909    -0.82510
O291        O  0.33260363  0.14820288  0.52430233    -0.80810
O292        O  0.38980826  0.16176677  0.66579620    -0.85010
O293        O  0.33778347  0.20255739  0.63200338    -0.79870
O294        O  0.36426284  0.07676890  0.59630207    -0.81640
O295        O  0.38397030  0.19156969  0.52555917    -0.84390
C296        C  0.30940581  0.19063516  0.62916529     0.96380
C297        C  0.37462971  0.13753435  0.67884448     1.03820
O298        O  0.36739278  0.14973671  0.58949381    -1.13370
O299        O  0.42608272  0.13944702  0.55467821    -0.75800
O300        O  0.43096355  0.17152993  0.60445747    -0.79290
O301        O  0.30512717  0.15988291  0.62067218    -0.79980
C302        C  0.44221042  0.15114378  0.58101549     0.95280
O303        O  0.37975617  0.22102187  0.57549030    -0.77940
O304        O  0.37634956  0.09313332  0.54100412    -0.83130
C305        C  0.31018749  0.12993829  0.53515952     0.97900
C306        C  0.37338164  0.07058731  0.56410746     1.03820
O307        O  0.31372723  0.11134280  0.56174569    -0.78770
C308        C  0.38014084  0.21869175  0.54150884     1.02120
Fe309      Fe  0.12486638  0.29404192  0.61563971     1.65780
Fe310      Fe  0.12560780  0.34433282  0.54310086     1.73250
Fe311      Fe  0.17860010  0.35374133  0.60953658     1.54410
O312        O  0.15211417  0.36909940  0.65241927    -0.82510
O313        O  0.17218464  0.35357827  0.52411640    -0.80810
O314        O  0.13366720  0.31851183  0.66578543    -0.85010
O315        O  0.16946747  0.27021534  0.61611688    -0.79870
O316        O  0.16916484  0.39965723  0.58064368    -0.81640
O317        O  0.12962977  0.29731673  0.52286882    -0.84390
C318        C  0.19542677  0.28146169  0.62959535     0.96380
C319        C  0.14084548  0.34849426  0.67483259     1.03820
O320        O  0.14208739  0.33102670  0.58964088    -1.13370
O321        O  0.07837406  0.33781243  0.55946816    -0.75800
O322        O  0.08069585  0.31746980  0.61546093    -0.79290
O323        O  0.19661975  0.31214078  0.63848093    -0.79980
C324        C  0.06647055  0.33357153  0.59063112     0.95280
O325        O  0.11450777  0.26553274  0.56854897    -0.77940
O326        O  0.12035060  0.39271004  0.55890347    -0.83130
C327        C  0.19967705  0.34599368  0.53734042     0.97900
C328        C  0.14459395  0.41097648  0.56344658     1.03820
O329        O  0.20321536  0.33499095  0.56851444    -0.78770
C330        C  0.12205024  0.26936337  0.53549254     1.02120
Fe331      Fe  0.38631151  0.43803574  0.38541361     1.65780
Fe332      Fe  0.38697933  0.38794065  0.45642615     1.73250
Fe333      Fe  0.33210363  0.37795559  0.39187036     1.54420
O334        O  0.31338217  0.41921026  0.36363379    -0.82510
O335        O  0.39189044  0.34362535  0.43367908    -0.80810
O336        O  0.34103768  0.46169771  0.38441335    -0.85010
O337        O  0.37761607  0.41354624  0.33562979    -0.79870
O338        O  0.30771265  0.39465417  0.43440545    -0.81640
O339        O  0.43411210  0.39573475  0.44102390    -0.84390
C340        C  0.36994807  0.38382670  0.32612029     0.96380
C341        C  0.31469316  0.44997241  0.37188587     1.03820
O342        O  0.36849751  0.40202232  0.41142538    -1.13370
O343        O  0.38239707  0.43315580  0.47940544    -0.75800
O344        O  0.39568027  0.46602678  0.43357979    -0.79290
O345        O  0.35776755  0.36319532  0.34788730    -0.79980
C346        C  0.38847175  0.46144974  0.46679329     0.95280
O347        O  0.43118590  0.41346990  0.38471747    -0.77940
O348        O  0.34154735  0.37616721  0.47632534    -0.83130
C349        C  0.36879022  0.32456964  0.43657901     0.97900
C350        C  0.31320875  0.38193084  0.46462960     1.03820
O351        O  0.34274173  0.33273417  0.42059396    -0.78770
C352        C  0.44555179  0.39718726  0.40949466     1.02120
C353        C  0.25445809  0.36923436  0.53822851    -0.02680
C354        C  0.22921060  0.35329475  0.51872712     0.07000
C355        C  0.23254005  0.34513303  0.48232267    -0.02790
C356        C  0.26101090  0.35313816  0.46506657    -0.02800
C357        C  0.28561343  0.37026279  0.48414969     0.07130
C358        C  0.28279894  0.37741205  0.52084519    -0.02990
Br359      Br  0.31648002  0.40080070  0.54678958    -0.01540
Br360      Br  0.24884750  0.38572103  0.58699714    -0.01610
Br361      Br  0.26603278  0.33923409  0.41549660    -0.01570
Br362      Br  0.19835199  0.32314454  0.45591052    -0.01560
C363        C  0.28386344  0.24955624  0.63372789    -0.02680
C364        C  0.28046117  0.21421161  0.63435689     0.07000
C365        C  0.24868494  0.20211923  0.63908502    -0.02790
C366        C  0.22135161  0.22335623  0.63643442    -0.02800
C367        C  0.22469412  0.25847449  0.63437733     0.07130
C368        C  0.25664003  0.27103594  0.63579009    -0.02990
Br369      Br  0.26450721  0.31798243  0.64157709    -0.01540
Br370      Br  0.32561293  0.27053526  0.63000996    -0.01610
Br371      Br  0.17925900  0.20301462  0.63741898    -0.01570
Br372      Br  0.24168649  0.15750988  0.65534574    -0.01560
C373        C  0.34882734  0.24941763  0.49496532    -0.02680
C374        C  0.37562335  0.24796759  0.51837394     0.07000
C375        C  0.40027108  0.27114516  0.51510298    -0.02790
C376        C  0.39777686  0.29662843  0.48942961    -0.02800
C377        C  0.37172953  0.29698030  0.46361856     0.07130
C378        C  0.34778305  0.27228743  0.46642995    -0.02990
Br379      Br  0.31460088  0.26718908  0.43028254    -0.01540
Br380      Br  0.31259855  0.22079968  0.50307115    -0.01610
Br381      Br  0.43049556  0.33074112  0.49308465    -0.01570
Br382      Br  0.43824099  0.26672815  0.54522774    -0.01560
C383        C  0.35479017  0.49677930  0.50684117    -0.02680
C384        C  0.38539653  0.48941985  0.49272514     0.07000
C385        C  0.41268008  0.00454634  0.50821784    -0.02790
C386        C  0.40918202  0.02841327  0.53596938    -0.02800
C387        C  0.37846100  0.03673203  0.54933205     0.07130
C388        C  0.35142044  0.01985548  0.53528209    -0.02990
Br389      Br  0.30921119  0.03054442  0.55289964    -0.01540
Br390      Br  0.31701543  0.47665242  0.48545625    -0.01610
Br391      Br  0.44644979  0.05122871  0.55446952    -0.01570
Br392      Br  0.45475066  0.49256065  0.49124200    -0.01560
C393        C  0.28721597  0.00746865  0.36601085    -0.02680
C394        C  0.28480700  0.47224323  0.36706314     0.07000
C395        C  0.25315214  0.45873387  0.36425224    -0.02790
C396        C  0.22538546  0.47949798  0.36258586    -0.02800
C397        C  0.22764949  0.01464672  0.36581806     0.07130
C398        C  0.25932661  0.02818789  0.36594376    -0.02990
Br399      Br  0.26606266  0.07548425  0.36558831    -0.01540
Br400      Br  0.32890216  0.02844131  0.36251496    -0.01610
Br401      Br  0.18418352  0.45878012  0.35295691    -0.01570
Br402      Br  0.24607387  0.41132875  0.36330152    -0.01560
C403        C  0.15438190  0.21059971  0.46425444    -0.02680
C404        C  0.12667337  0.19300562  0.45225895     0.07000
C405        C  0.09669999  0.20220537  0.46783384    -0.02790
C406        C  0.09520864  0.22602335  0.49603771    -0.02800
C407        C  0.12335647  0.24077089  0.50981132     0.07130
C408        C  0.15291627  0.23266907  0.49391223    -0.02990
Br409      Br  0.19204326  0.25084731  0.51443569    -0.01540
Br410      Br  0.19438590  0.20772996  0.43925923    -0.01610
Br411      Br  0.05439651  0.23917063  0.51550034    -0.01570
Br412      Br  0.05667311  0.18441702  0.44953118    -0.01560
C413        C  0.16229753  0.47577740  0.49112262    -0.02680
C414        C  0.13314816  0.49334942  0.48985495     0.07000
C415        C  0.11089564  0.48851432  0.51756863    -0.02790
C416        C  0.11636334  0.46409972  0.54414337    -0.02800
C417        C  0.14425737  0.44391295  0.54381004     0.07130
C418        C  0.16797987  0.45171304  0.51805811    -0.02990
Br419      Br  0.20918388  0.43142173  0.51963803    -0.01540
Br420      Br  0.19508732  0.48575372  0.45640662    -0.01610
Br421      Br  0.08689939  0.46122357  0.58307827    -0.01570
Br422      Br  0.07308207  0.01609590  0.51957900    -0.01560
C423        C  0.25099193  0.12158147  0.53633350    -0.02680
C424        C  0.27920949  0.12941711  0.51678262     0.07000
C425        C  0.27739470  0.13642165  0.47972055    -0.02790
C426        C  0.24769734  0.13546192  0.46244091    -0.02800
C427        C  0.22023182  0.12541259  0.48162512     0.07130
C428        C  0.22128285  0.12163323  0.51901536    -0.02990
Br429      Br  0.18265117  0.11473434  0.54687731    -0.01540
Br430      Br  0.25153391  0.10585208  0.58546006    -0.01610
Br431      Br  0.24534926  0.14755238  0.41199640    -0.01570
Br432      Br  0.31539977  0.14159756  0.45039059    -0.01560
C433        C  0.39056325  0.33513243  0.24076424    -0.02680
C434        C  0.37369122  0.35342384  0.21430686     0.07000
C435        C  0.35525812  0.38150364  0.22534805    -0.02790
C436        C  0.35575709  0.39221435  0.26145899    -0.02800
C437        C  0.37251759  0.37386042  0.28770252     0.07130
C438        C  0.38897839  0.34470851  0.27731271    -0.02990
Br439      Br  0.40940926  0.31744815  0.31299220    -0.01540
Br440      Br  0.41678039  0.29741634  0.22761898    -0.01610
Br441      Br  0.33109900  0.43095931  0.27535261    -0.01570
Br442      Br  0.32626746  0.40438500  0.19260787    -0.01560
C443        C  0.16455601  0.38518833  0.76562055    -0.02680
C444        C  0.13633225  0.38111233  0.78570796     0.07000
C445        C  0.10906236  0.36666141  0.76930451    -0.02790
C446        C  0.11028900  0.35555762  0.73313174    -0.02800
C447        C  0.13875815  0.35934958  0.71308749     0.07130
C448        C  0.16590088  0.37424498  0.72967671    -0.02990
Br449      Br  0.20614501  0.37766299  0.70432608    -0.01540
Br450      Br  0.20176119  0.40591231  0.78761543    -0.01610
Br451      Br  0.07284348  0.33557069  0.71119298    -0.01570
Br452      Br  0.07034736  0.36169331  0.79668911    -0.01560
C453        C  0.23485628  0.40180434  0.01703936    -0.02680
C454        C  0.21977391  0.37534010  0.99901928     0.07000
C455        C  0.23561129  0.34451343  0.99568574    -0.02790
C456        C  0.26768167  0.34149282  0.00609022    -0.02800
C457        C  0.28414048  0.36934071  0.01953452     0.07130
C458        C  0.26743204  0.39917860  0.02621822    -0.02990
Br459      Br  0.28852933  0.43566161  0.05027395    -0.01540
Br460      Br  0.21082130  0.44039449  0.03129310    -0.01610
Br461      Br  0.28790203  0.29830148  0.00582266    -0.01570
Br462      Br  0.21271598  0.30571403  0.97896767    -0.01560
C463        C  0.34476190  0.11497040  0.77052883    -0.02680
C464        C  0.37324515  0.10659986  0.78921983     0.07000
C465        C  0.40316826  0.11341931  0.77339865    -0.02790
C466        C  0.40436162  0.12656444  0.73816699    -0.02800
C467        C  0.37567311  0.13048379  0.71796269     0.07130
C468        C  0.34598551  0.12655500  0.73527656    -0.02990
Br469      Br  0.30643817  0.14016173  0.71203327    -0.01540
Br470      Br  0.30329927  0.11163642  0.79293040    -0.01610
Br471      Br  0.44459997  0.14208290  0.71979471    -0.01570
Br472      Br  0.44214978  0.10710438  0.80092168    -0.01560
C473        C  0.28182684  0.48271812  0.89757561    -0.02680
C474        C  0.28120025  0.01211477  0.87650023     0.07000
C475        C  0.25338787  0.01778248  0.85507260    -0.02790
C476        C  0.22738833  0.49485253  0.85436784    -0.02800
C477        C  0.22768205  0.46616615  0.87631878     0.07130
C478        C  0.25555396  0.46026661  0.89756869    -0.02990
Br479      Br  0.25775241  0.42232983  0.92901855    -0.01540
Br480      Br  0.31727703  0.47411652  0.93016430    -0.01610
Br481      Br  0.19212539  0.50196984  0.82108970    -0.01570
Br482      Br  0.25035780  0.05664296  0.82576322    -0.01560
C483        C  0.36871183  0.99109990  0.02292204    -0.02680
C484        C  0.38621729  0.48684636  0.99052628     0.07000
C485        C  0.40329127  0.45726978  0.98509568    -0.02790
C486        C  0.40180642  0.43178224  0.01088844    -0.02800
C487        C  0.38527561  0.43690539  0.04414028     0.07130
C488        C  0.37030964  0.46747379  0.05042790    -0.02990
Br489      Br  0.35355561  0.47808500  0.09759649    -0.01540
Br490      Br  0.33912890  0.02709711  0.02946559    -0.01610
Br491      Br  0.42178197  0.39000332  0.99807631    -0.01570
Br492      Br  0.42962126  0.45206931  0.94279582    -0.01560
C493        C  0.36479600  0.22294880  0.94486878    -0.02680
C494        C  0.38226869  0.19414107  0.95322922     0.07000
C495        C  0.40677815  0.19623682  0.98031726    -0.02790
C496        C  0.40803510  0.22340859  0.00405420    -0.02800
C497        C  0.38652127  0.25005947  0.99945404     0.07130
C498        C  0.36868850  0.25165851  0.96643120    -0.02990
Br499      Br  0.35246948  0.29296453  0.94718711    -0.01540
Br500      Br  0.33455005  0.22315155  0.90521444    -0.01610
Br501      Br  0.44128424  0.22459139  0.04098331    -0.01570
Br502      Br  0.43894429  0.16176714  0.98649738    -0.01560
C503        C  0.16780713  0.12239226  0.23062839    -0.02680
C504        C  0.13908621  0.12676894  0.21088463     0.07000
C505        C  0.10958735  0.11804937  0.22650803    -0.02790
C506        C  0.10885729  0.10553707  0.26199652    -0.02800
C507        C  0.13751123  0.10314179  0.28240913     0.07130
C508        C  0.16700096  0.11127137  0.26629873    -0.02990
Br509      Br  0.20693814  0.10606141  0.29250807    -0.01540
Br510      Br  0.20874071  0.13126149  0.20876102    -0.01610
Br511      Br  0.06889262  0.09109891  0.28210533    -0.01570
Br512      Br  0.07053296  0.12212354  0.19873662    -0.01560
C513        C  0.25803661  0.21195013  0.13756292    -0.02680
C514        C  0.22674670  0.22418455  0.12796466     0.07000
C515        C  0.22465439  0.25892477  0.12015777    -0.02790
C516        C  0.25238933  0.27979549  0.12094522    -0.02800
C517        C  0.28328257  0.26717509  0.12979028     0.07130
C518        C  0.28528121  0.23331537  0.13949940    -0.02990
Br519      Br  0.32565468  0.21619876  0.15792574    -0.01540
Br520      Br  0.26613222  0.16537012  0.14631139    -0.01610
Br521      Br  0.24752246  0.32598101  0.10831967    -0.01570
Br522      Br  0.18424192  0.27949014  0.10672295    -0.01560
C523        C  0.09982844  0.50334087  0.01579952    -0.02680
C524        C  0.12364180  0.49625868  0.99010600     0.07000
C525        C  0.15522765  0.00772598  0.99629968    -0.02790
C526        C  0.16246038  0.02741955  0.02686022    -0.02800
C527        C  0.13757093  0.03857806  0.04942878     0.07130
C528        C  0.10682818  0.02425473  0.04537058    -0.02990
Br529      Br  0.07530962  0.03134767  0.08236969    -0.01540
Br530      Br  0.05752458  0.48442976  0.01027269    -0.01610
Br531      Br  0.20660926  0.03618830  0.03961952    -0.01570
Br532      Br  0.18887863  0.49509270  0.96347467    -0.01560
C533        C  0.10003468  0.28555699  0.97799237    -0.02680
C534        C  0.12437943  0.28828684  0.95142342     0.07000
C535        C  0.14540525  0.26146341  0.94631791    -0.02790
C536        C  0.14661214  0.23568055  0.97188554    -0.02800
C537        C  0.12499516  0.23542218  0.00156853     0.07130
C538        C  0.10041221  0.25940397  0.00281931    -0.02990
Br539      Br  0.06640778  0.25663916  0.03797504    -0.01540
Br540      Br  0.06616482  0.31836374  0.98219669    -0.01610
Br541      Br  0.18007185  0.20267293  0.96644675    -0.01570
Br542      Br  0.17338481  0.26048920  0.90511024    -0.01560
C543        C  0.22936110  0.10079960  0.98695651    -0.02680
C544        C  0.22626068  0.12935978  0.00819911     0.07000
C545        C  0.25360645  0.14798177  0.01799554    -0.02790
C546        C  0.28401525  0.13443336  0.01301390    -0.02800
C547        C  0.28690793  0.10332377  0.99614018     0.07130
C548        C  0.25951760  0.08619187  0.98386059    -0.02990
Br549      Br  0.26397886  0.04382222  0.96045896    -0.01540
Br550      Br  0.19344403  0.08402361  0.95920798    -0.01610
Br551      Br  0.32175980  0.15952487  0.02652519    -0.01570
Br552      Br  0.24889520  0.19254389  0.03677489    -0.01560
C553        C  0.97733395  0.34889191  0.59608669    -0.02680
C554        C  0.97623464  0.38396237  0.60008134     0.07000
C555        C  0.00486667  0.40026243  0.61021166    -0.02790
C556        C  0.03394259  0.38205141  0.61189280    -0.02800
C557        C  0.03525738  0.34933022  0.59829148     0.07130
C558        C  0.00668529  0.33222662  0.59207911    -0.02990
Br559      Br  0.00784541  0.28532154  0.58145255    -0.01540
Br560      Br  0.94119838  0.32196030  0.60685384    -0.01610
Br561      Br  0.07061972  0.39913450  0.63761887    -0.01570
Br562      Br  0.00425528  0.44677776  0.62202787    -0.01560
C563        C  0.47813998  0.34386284  0.40739191    -0.02680
C564        C  0.47636496  0.37882345  0.40242860     0.07000
C565        C  0.50489939  0.39549049  0.39338301    -0.02790
C566        C  0.53428380  0.37775210  0.39226828    -0.02800
C567        C  0.53601011  0.34465501  0.40455378     0.07130
C568        C  0.50774334  0.32776988  0.41207521    -0.02990
Br569      Br  0.50961022  0.28197668  0.42723761    -0.01540
Br570      Br  0.44276744  0.31546815  0.39688121    -0.01610
Br571      Br  0.57183717  0.39785372  0.37241259    -0.01570
Br572      Br  0.50393529  0.44219697  0.38274068    -0.01560
C573        C  0.74104027  0.39489306  0.48018169    -0.02680
C574        C  0.72578879  0.36418008  0.48603037     0.07000
C575        C  0.74128668  0.33861519  0.50436081    -0.02790
C576        C  0.77311257  0.34272018  0.51470619    -0.02800
C577        C  0.78799325  0.37373876  0.51027862     0.07130
C578        C  0.77211490  0.39985101  0.49309284    -0.02990
Br579      Br  0.79295214  0.44211096  0.48744090    -0.01540
Br580      Br  0.71984009  0.43024728  0.45458669    -0.01610
Br581      Br  0.79616528  0.30528125  0.53356176    -0.01570
Br582      Br  0.71889159  0.29821044  0.51525552    -0.01560
C583        C  0.48273657  0.11408750  0.61020597    -0.02680
C584        C  0.47524737  0.13846715  0.58428585     0.07000
C585        C  0.49621809  0.14362380  0.55562233    -0.02790
C586        C  0.52425956  0.12457891  0.55276602    -0.02800
C587        C  0.53452193  0.10387774  0.58173992     0.07130
C588        C  0.51301967  0.09826523  0.61033043    -0.02990
Br589      Br  0.52346643  0.06822513  0.64898776    -0.01540
Br590      Br  0.44961007  0.09838325  0.64165615    -0.01610
Br591      Br  0.54555921  0.12433908  0.50649943    -0.01570
Br592      Br  0.48548031  0.17588730  0.51902148    -0.01560
C593        C  0.75916864  0.02664539  0.64418246    -0.02680
C594        C  0.72735471  0.01417282  0.63876492     0.07000
C595        C  0.72428298  0.47896021  0.63771320    -0.02790
C596        C  0.75172267  0.45787430  0.63399931    -0.02800
C597        C  0.78361540  0.47080420  0.63548024     0.07130
C598        C  0.78658275  0.00534459  0.64301667    -0.02990
Br599      Br  0.82831919  0.02416668  0.65393004    -0.01540
Br600      Br  0.76635328  0.07308488  0.65539539    -0.01610
Br601      Br  0.74421380  0.41119501  0.62491201    -0.01570
Br602      Br  0.68289601  0.45832519  0.64467583    -0.01560
C603        C  0.64745213  0.46916657  0.51758276    -0.02680
C604        C  0.62566878  0.49475139  0.51025561     0.07000
C605        C  0.61059911  0.49500855  0.47558421    -0.02790
C606        C  0.61742547  0.46936577  0.45031327    -0.02800
C607        C  0.63427744  0.44074934  0.46148320     0.07130
C608        C  0.64637329  0.44030215  0.49721510    -0.02990
Br609      Br  0.65152926  0.40112732  0.52549749    -0.01540
Br610      Br  0.68202257  0.47374513  0.55210265    -0.01610
Br611      Br  0.60239562  0.47284883  0.40144295    -0.01570
Br612      Br  0.58017517  0.02899468  0.46187955    -0.01560
C613        C  0.61397307  0.20921849  0.54253604    -0.02680
C614        C  0.64502096  0.19568428  0.54698633     0.07000
C615        C  0.66950505  0.20578750  0.52355834    -0.02790
C616        C  0.66233051  0.22595687  0.49372280    -0.02800
C617        C  0.63129115  0.23900497  0.48880825     0.07130
C618        C  0.60739638  0.23164338  0.51423806    -0.02990
Br619      Br  0.56558424  0.25177053  0.50975968    -0.01540
Br620      Br  0.58021934  0.19547929  0.57428453    -0.01610
Br621      Br  0.69463676  0.23523095  0.45848361    -0.01570
Br622      Br  0.71274277  0.19043848  0.53190978    -0.01560
C623        C  0.98068867  0.10046489  0.43673751    -0.02680
C624        C  0.97452229  0.12883610  0.41496616     0.07000
C625        C  0.99842739  0.13872793  0.39033944    -0.02790
C626        C  0.02752502  0.12068251  0.38769775    -0.02800
C627        C  0.03206710  0.09105425  0.40730523     0.07130
C628        C  0.00792677  0.08057165  0.43069894    -0.02990
Br629      Br  0.01234165  0.03824620  0.45439809    -0.01540
Br630      Br  0.95473100  0.08924993  0.47777556    -0.01610
Br631      Br  0.06260151  0.13892446  0.36066245    -0.01570
Br632      Br  0.99369551  0.17951793  0.36369956    -0.01560
C633        C  0.75439825  0.21130566  0.35535513    -0.02680
C634        C  0.78563770  0.22273760  0.36621100     0.07000
C635        C  0.78805723  0.25740948  0.37461253    -0.02790
C636        C  0.76037533  0.27840504  0.37576425    -0.02800
C637        C  0.72927780  0.26627369  0.36690887     0.07130
C638        C  0.72711596  0.23279461  0.35522803    -0.02990
Br639      Br  0.68642198  0.21621375  0.33698240    -0.01540
Br640      Br  0.74680578  0.16592651  0.34056543    -0.01610
Br641      Br  0.76565570  0.32389348  0.39155212    -0.01570
Br642      Br  0.82919972  0.27811692  0.38398143    -0.01560
C643        C  0.85414417  0.00987316  0.50753145    -0.02680
C644        C  0.88442151  0.49458545  0.51077827     0.07000
C645        C  0.90655877  0.49838679  0.48247889    -0.02790
C646        C  0.89968536  0.02014830  0.45363199    -0.02800
C647        C  0.87000097  0.03697590  0.45173158     0.07130
C648        C  0.84621847  0.02873182  0.47680439    -0.02990
Br649      Br  0.80210873  0.03882400  0.46616819    -0.01540
Br650      Br  0.82337630  0.00405836  0.54521018    -0.01610
Br651      Br  0.92918524  0.02471370  0.41432214    -0.01570
Br652      Br  0.94599828  0.47336266  0.48301361    -0.01560
C653        C  0.89138925  0.27129476  0.47904818    -0.02680
C654        C  0.88455927  0.23896844  0.49170214     0.07000
C655        C  0.87636962  0.23536306  0.52894235    -0.02790
C656        C  0.87215311  0.26350838  0.55141319    -0.02800
C657        C  0.87672088  0.29552033  0.53780370     0.07130
C658        C  0.88679887  0.29914794  0.50151875    -0.02990
Br659      Br  0.89364708  0.34258876  0.48064643    -0.01540
Br660      Br  0.90861181  0.27896051  0.43141135    -0.01610
Br661      Br  0.86174253  0.25833555  0.60166765    -0.01570
Br662      Br  0.87329069  0.19237513  0.55185084    -0.01560
C663        C  0.74941820  0.13306225  0.46926786    -0.02680
C664        C  0.77950124  0.12421955  0.48461715     0.07000
C665        C  0.78069850  0.10224916  0.51397657    -0.02790
C666        C  0.75308887  0.08470242  0.52277744    -0.02800
C667        C  0.72360181  0.09287186  0.50681925     0.07130
C668        C  0.72171389  0.11633304  0.47933122    -0.02990
Br669      Br  0.68066944  0.12768204  0.45788309    -0.01540
Br670      Br  0.74510588  0.17070659  0.43768082    -0.01610
Br671      Br  0.75434276  0.04993546  0.55785077    -0.01570
Br672      Br  0.81862806  0.09698402  0.54382887    -0.01560
C673        C  0.51712583  0.37726991  0.05379844    -0.02680
C674        C  0.52933207  0.39288994  0.08533546     0.07000
C675        C  0.51136235  0.38917183  0.11726743    -0.02790
C676        C  0.48480611  0.36688092  0.11846863    -0.02800
C677        C  0.47597404  0.34748821  0.08776010     0.07130
C678        C  0.49376070  0.35220012  0.05585770    -0.02990
Br679      Br  0.48849944  0.32316984  0.01447666    -0.01540
Br680      Br  0.52603979  0.39483991  0.00655052    -0.01610
Br681      Br  0.46044626  0.36432177  0.16231054    -0.01570
Br682      Br  0.51880983  0.41919429  0.15709320    -0.01560
C683        C  0.66487614  0.37948811  0.23502975    -0.02680
C684        C  0.63583847  0.38049339  0.21525446     0.07000
C685        C  0.60762482  0.36783861  0.23077831    -0.02790
C686        C  0.60800237  0.35633769  0.26664654    -0.02800
C687        C  0.63693003  0.35630413  0.28658543     0.07130
C688        C  0.66543639  0.36742750  0.27040741    -0.02990
Br689      Br  0.70593431  0.36452604  0.29601201    -0.01540
Br690      Br  0.70458601  0.39297702  0.21306739    -0.01610
Br691      Br  0.56902345  0.34100840  0.28860076    -0.01570
Br692      Br  0.56924948  0.36380433  0.20209774    -0.01560
C693        C  0.00144617  0.33207592  0.90469084    -0.02680
C694        C  0.97289091  0.35061025  0.90536180     0.07000
C695        C  0.97436773  0.38489929  0.89721483    -0.02790
C696        C  0.00404186  0.40183422  0.89808004    -0.02800
C697        C  0.03262436  0.38363602  0.90207586     0.07130
C698        C  0.03096283  0.34856367  0.90039853    -0.02990
Br699      Br  0.06843779  0.32336317  0.88784189    -0.01540
Br700      Br  0.00056093  0.28462652  0.91078145    -0.01610
Br701      Br  0.00527392  0.44948157  0.89465713    -0.01570
Br702      Br  0.93636239  0.40769513  0.88092950    -0.01560
C703        C  0.88899297  0.33953865  0.76281651    -0.02680
C704        C  0.87252658  0.35896211  0.78881985     0.07000
C705        C  0.85858930  0.38959614  0.77753142    -0.02790
C706        C  0.85822870  0.39857392  0.74086456    -0.02800
C707        C  0.87393145  0.37873948  0.71504603     0.07130
C708        C  0.88994968  0.34971843  0.72650567    -0.02990
Br709      Br  0.91396733  0.32378685  0.69255691    -0.01540
Br710      Br  0.90983356  0.29812139  0.77530877    -0.01610
Br711      Br  0.83343506  0.43683026  0.72579335    -0.01570
Br712      Br  0.84095654  0.42116573  0.81163643    -0.01560
C713        C  0.77493186  0.33506544  0.02270649    -0.02680
C714        C  0.78011852  0.34636728  0.98732703     0.07000
C715        C  0.75344550  0.35853103  0.96646699    -0.02790
C716        C  0.72291486  0.36055096  0.98157294    -0.02800
C717        C  0.71924598  0.35318214  0.01789396     0.07130
C718        C  0.74423955  0.33776727  0.03749438    -0.02990
Br719      Br  0.73635547  0.32102859  0.08532402    -0.01540
Br720      Br  0.80983538  0.32104210  0.05381264    -0.01610
Br721      Br  0.68658732  0.37596879  0.95319292    -0.01570
Br722      Br  0.75722391  0.37725480  0.91864085    -0.01560
C723        C  0.50349302  0.15293160  0.90310253    -0.02680
C724        C  0.53206603  0.13484116  0.90059076     0.07000
C725        C  0.53073070  0.10063617  0.89204841    -0.02790
C726        C  0.50147225  0.08321283  0.89478959    -0.02800
C727        C  0.47308888  0.10096299  0.90190298     0.07130
C728        C  0.47405527  0.13607058  0.90077295    -0.02990
Br729      Br  0.43576880  0.16087290  0.89048046    -0.01540
Br730      Br  0.50464290  0.20020353  0.91125518    -0.01610
Br731      Br  0.50070210  0.03560545  0.88997030    -0.01570
Br732      Br  0.56881430  0.07851572  0.87504602    -0.01560
C733        C  0.66329600  0.11393669  0.77226900    -0.02680
C734        C  0.63596857  0.12918724  0.78765551     0.07000
C735        C  0.60806249  0.13362122  0.76619273    -0.02790
C736        C  0.60782993  0.12330914  0.72965295    -0.02800
C737        C  0.63482778  0.10710946  0.71507134     0.07130
C738        C  0.66208765  0.10167958  0.73692479    -0.02990
Br739      Br  0.69785783  0.07619209  0.71875117    -0.01540
Br740      Br  0.70384512  0.11171026  0.79821137    -0.01610
Br741      Br  0.57122826  0.13235960  0.69925094    -0.01570
Br742      Br  0.56992172  0.15268050  0.78686099    -0.01560
C743        C  0.75808867  0.20769684  0.87751607    -0.02680
C744        C  0.72575298  0.21954031  0.87605903     0.07000
C745        C  0.72162611  0.25467625  0.87211140    -0.02790
C746        C  0.74841999  0.27627372  0.86922820    -0.02800
C747        C  0.78010090  0.26503546  0.87571529     0.07130
C748        C  0.78457971  0.23011524  0.87918366    -0.02990
Br749      Br  0.82701245  0.21173601  0.88714811    -0.01540
Br750      Br  0.76767081  0.16061491  0.87750286    -0.01610
Br751      Br  0.74148668  0.32060077  0.85123426    -0.01570
Br752      Br  0.67967917  0.27563304  0.87112512    -0.01560
C753        C  0.65599981  0.01355983  0.95484561    -0.02680
C754        C  0.62938321  0.03496778  0.95064310     0.07000
C755        C  0.60099549  0.02824849  0.97045812    -0.02790
C756        C  0.60066850  0.00339221  0.99677998    -0.02800
C757        C  0.62853823  0.48486575  0.00386796     0.07130
C758        C  0.65582637  0.48908151  0.98189138    -0.02990
Br759      Br  0.69436769  0.46358995  0.99100558    -0.01540
Br760      Br  0.69400965  0.01938329  0.92619368    -0.01610
Br761      Br  0.56166542  0.99468933  0.02310658    -0.01570
Br762      Br  0.56255970  0.05463159  0.96438887    -0.01560
C763        C  0.60790742  0.29994806  0.01220259    -0.02680
C764        C  0.62435378  0.29579202  0.04583016     0.07000
C765        C  0.63937169  0.26524867  0.05295325    -0.02790
C766        C  0.63870199  0.23971848  0.02688566    -0.02800
C767        C  0.62074555  0.24332815  0.99429274     0.07130
C768        C  0.60472888  0.27335571  0.98771897    -0.02990
Br769      Br  0.57709563  0.27789108  0.94580243    -0.01540
Br770      Br  0.59237975  0.34251605  0.99594907    -0.01610
Br771      Br  0.66470016  0.20094185  0.03601931    -0.01570
Br772      Br  0.66069496  0.25790081  0.09871938    -0.01560
C773        C  0.98234382  0.12266765  0.11057747    -0.02680
C774        C  0.97691615  0.09492010  0.08786868     0.07000
C775        C  0.00034441  0.08627223  0.06256263    -0.02790
C776        C  0.02838828  0.10540817  0.05898546    -0.02800
C777        C  0.03532377  0.13189393  0.08364070     0.07130
C778        C  0.01174919  0.14031936  0.10943431    -0.02990
Br779      Br  0.01727485  0.17878452  0.14011812    -0.01540
Br780      Br  0.94760983  0.13977872  0.13926240    -0.01610
Br781      Br  0.05492636  0.09528825  0.01767103    -0.01570
Br782      Br  0.99329150  0.04823692  0.03154819    -0.01560
C783        C  0.84365696  0.11695775  0.26728035    -0.02680
C784        C  0.87248819  0.12221554  0.28655653     0.06570
C785        C  0.90200617  0.11486951  0.27003387    -0.02790
C786        C  0.90250618  0.10283540  0.23415755    -0.02800
C787        C  0.87364680  0.10045931  0.21403004     0.07130
C788        C  0.84422671  0.10717833  0.23105829    -0.02990
Br789      Br  0.80404878  0.10207301  0.20530260    -0.01540
Br790      Br  0.80285529  0.12269431  0.29044421    -0.01610
Br791      Br  0.94231989  0.08846867  0.21341408    -0.01570
Br792      Br  0.94140333  0.12026954  0.29700876    -0.01560
C793        C  0.78595988  0.47781356  0.12989224    -0.02680
C794        C  0.78339073  0.01308827  0.12918262     0.07000
C795        C  0.75171798  0.02654885  0.13114012    -0.02790
C796        C  0.72409120  0.00562690  0.13280446    -0.02800
C797        C  0.72655904  0.47040150  0.12974682     0.07130
C798        C  0.75826390  0.45697771  0.12845298    -0.02990
Br799      Br  0.76525133  0.40973811  0.12260031    -0.01540
Br800      Br  0.82757651  0.45679618  0.13513280    -0.01610
Br801      Br  0.68283761  0.02641191  0.14106720    -0.01570
Br802      Br  0.74460414  0.07405269  0.12979719    -0.01560
C803        C  0.90703566  0.44853936  0.97409859    -0.02680
C804        C  0.88099014  0.44497162  0.94942809     0.07000
C805        C  0.85790226  0.47035238  0.94731812    -0.02790
C806        C  0.85885538  0.49704044  0.97212484    -0.02800
C807        C  0.88267874  0.49807465  0.99994374     0.07130
C808        C  0.90748934  0.47433827  0.99963624    -0.02990
Br809      Br  0.94249637  0.47642811  0.03421110    -0.01540
Br810      Br  0.94155346  0.41659234  0.97545904    -0.01610
Br811      Br  0.82557256  0.03037771  0.96861832    -0.01570
Br812      Br  0.82295133  0.46678545  0.91297341    -0.01560
C813        C  0.90824128  0.20210414  0.03256099    -0.02680
C814        C  0.87801477  0.19457795  0.04837510     0.07000
C815        C  0.85076759  0.21266595  0.03643004    -0.02790
C816        C  0.85283988  0.23336970  0.00584560    -0.02800
C817        C  0.88235843  0.23794577  0.98818787     0.07130
C818        C  0.91013364  0.22312811  0.00246203    -0.02990
Br819      Br  0.95100974  0.23170551  0.98011849    -0.01540
Br820      Br  0.94810229  0.18548239  0.05265535    -0.01610
Br821      Br  0.81480160  0.25484395  0.98712519    -0.01570
Br822      Br  0.81055662  0.21026900  0.06176937    -0.01560
C823        C  0.72562142  0.09787555  0.01308942    -0.02680
C824        C  0.71996680  0.12897820  0.99752472     0.07000
C825        C  0.74548697  0.15042432  0.98966976    -0.02790
C826        C  0.77700810  0.13992290  0.99544629    -0.02800
C827        C  0.78262329  0.10990181  0.01332008     0.07130
C828        C  0.75706798  0.08800648  0.02029510    -0.02990
Br829      Br  0.76554953  0.04373581  0.03776149    -0.01540
Br830      Br  0.69038936  0.06816043  0.02253808    -0.01610
Br831      Br  0.81191254  0.16470402  0.97555398    -0.01570
Br832      Br  0.73678342  0.19364844  0.96969668    -0.01560
Fe833      Fe  0.88460245  0.54430450  0.11029262     1.65780
Fe834      Fe  0.88431475  0.59717778  0.04127820     1.73250
Fe835      Fe  0.83464273  0.60872864  0.11028114     1.54420
O836        O  0.81262005  0.56601652  0.13323789    -0.82510
O837        O  0.89559828  0.64120318  0.06371130    -0.80810
O838        O  0.83881072  0.52292488  0.11116081    -0.85010
O839        O  0.87882086  0.56425031  0.16279489    -0.79870
O840        O  0.80602195  0.60047194  0.06811393    -0.81640
O841        O  0.93070208  0.58330020  0.05340916    -0.84390
C842        C  0.87308625  0.59349252  0.17481304     0.96380
C843        C  0.81324334  0.53520681  0.12443274     1.03820
O844        O  0.86751733  0.58288801  0.08697794    -1.13370
O845        O  0.87502538  0.55351043  0.01711109    -0.75800
O846        O  0.89116064  0.51932635  0.06037955    -0.79290
O847        O  0.86325850  0.61665664  0.15450638    -0.79980
C848        C  0.88275586  0.52496589  0.02763567     0.95280
O849        O  0.93016063  0.56652784  0.11023451    -0.77940
O850        O  0.83913258  0.61231742  0.02320132    -0.83130
C851        C  0.87443750  0.66268234  0.06896472     0.97900
C852        C  0.81124847  0.60670805  0.03552457     1.03820
O853        O  0.84930456  0.65475990  0.08653191    -0.78770
C854        C  0.94420693  0.58042743  0.08395242     1.02120
Fe855      Fe  0.62355870  0.68926589  0.88860796     1.65780
Fe856      Fe  0.62051391  0.64013848  0.96323177     1.73250
Fe857      Fe  0.67271656  0.62254763  0.89569945     1.54420
O858        O  0.65015320  0.61743574  0.84727799    -0.82510
O859        O  0.66496155  0.63915858  0.98747873    -0.80810
O860        O  0.62752155  0.66647818  0.83770850    -0.85010
O861        O  0.66925612  0.70881548  0.88492647    -0.79870
O862        O  0.65187990  0.57688590  0.91079932    -0.81640
O863        O  0.61596084  0.68693237  0.98120843    -0.84390
C864        C  0.69677997  0.69616643  0.88007687     0.96380
C865        C  0.63726735  0.63830962  0.82651080     1.03820
O866        O  0.63898716  0.65063063  0.91594049    -1.13370
O867        O  0.57557337  0.63872645  0.94022771    -0.75800
O868        O  0.57680115  0.67053943  0.89069301    -0.79290
O869        O  0.70010505  0.66452635  0.87953106    -0.79980
C870        C  0.56312356  0.64960707  0.91122085     0.95280
O871        O  0.61974662  0.71977838  0.93434879    -0.77940
O872        O  0.62237364  0.59119566  0.95728074    -0.83130
C873        C  0.69214815  0.63155297  0.97470954     0.97900
C874        C  0.63442674  0.56941574  0.93754969     1.03820
O875        O  0.69737527  0.62441822  0.94217705    -0.78770
C876        C  0.61842442  0.71527396  0.96812725     1.02120
Fe877      Fe  0.88272433  0.79608379  0.88615092     1.65780
Fe878      Fe  0.88253200  0.83999378  0.96360230     1.73250
Fe879      Fe  0.83276899  0.86105805  0.89793779     1.54410
O880        O  0.84451499  0.85810604  0.84431935    -0.82510
O881        O  0.83649248  0.83079297  0.98300370    -0.80810
O882        O  0.88707575  0.82582672  0.84068349    -0.85010
O883        O  0.83623881  0.78027211  0.87150549    -0.79870
O884        O  0.86196928  0.90326859  0.90588568    -0.81640
O885        O  0.89494358  0.79258433  0.97543311    -0.84390
C886        C  0.80787905  0.78963496  0.87979854     0.96380
C887        C  0.86808539  0.84696812  0.82680474     1.03820
O888        O  0.86661223  0.83231659  0.91508341    -1.13370
O889        O  0.92688174  0.84914051  0.94179278    -0.75800
O890        O  0.93029066  0.81079126  0.89786442    -0.79290
O891        O  0.80263661  0.81896597  0.89222149    -0.79980
C892        C  0.94168036  0.83554631  0.91569003     0.95280
O893        O  0.87874909  0.76234320  0.92903591    -0.77940
O894        O  0.87419663  0.88969358  0.96224837    -0.83130
C895        C  0.81284018  0.84834538  0.97241135     0.97900
C896        C  0.87251235  0.91089402  0.93743699     1.03820
O897        O  0.81709507  0.86976492  0.94876783    -0.78770
C898        C  0.88566507  0.76548806  0.96226833     1.02120
Fe899      Fe  0.62380000  0.93989007  0.11383276     1.65780
Fe900      Fe  0.62143029  0.88772045  0.04485249     1.73250
Fe901      Fe  0.67387891  0.87527074  0.11053914     1.54410
O902        O  0.69810701  0.91713504  0.13301277    -0.82510
O903        O  0.60681392  0.84638936  0.07064688    -0.80810
O904        O  0.66992187  0.96080290  0.11552480    -0.85010
O905        O  0.62985759  0.91844381  0.16572640    -0.79870
O906        O  0.69994996  0.88316631  0.06634124    -0.81640
O907        O  0.57721231  0.90889298  0.05507821    -0.84390
C908        C  0.63711813  0.88916175  0.17665375     0.96380
C909        C  0.69650866  0.94823955  0.12610988     1.03820
O910        O  0.64024976  0.90167918  0.08980825    -1.13370
O911        O  0.63579104  0.92973792  0.02089592    -0.75800
O912        O  0.61793561  0.96456955  0.06350603    -0.79290
O913        O  0.64839147  0.86706736  0.15599754    -0.79980
C914        C  0.62787326  0.95850077  0.03135081     0.95280
O915        O  0.57716716  0.91887223  0.11281717    -0.77940
O916        O  0.66383280  0.86462978  0.02724979    -0.83130
C917        C  0.62811917  0.82443508  0.07121955     0.97900
C918        C  0.69280175  0.86800222  0.03772491     1.03820
O919        O  0.65506682  0.83050128  0.08693897    -0.78770
C920        C  0.56250977  0.90854273  0.08464141     1.02120
Fe921      Fe  0.88596312  0.68434083  0.38581181     1.65780
Fe922      Fe  0.88146590  0.63673554  0.45831637     1.73250
Fe923      Fe  0.83096272  0.62476715  0.38949628     1.54420
O924        O  0.81148478  0.66768807  0.36407178    -0.82510
O925        O  0.89043105  0.58979988  0.44056525    -0.80810
O926        O  0.84170184  0.70947765  0.38232664    -0.85010
O927        O  0.87874763  0.66162520  0.33478741    -0.79870
O928        O  0.80394478  0.63771906  0.43107168    -0.81640
O929        O  0.92885701  0.64859173  0.44714901    -0.84390
C930        C  0.87058189  0.63231166  0.32482325     0.96380
C931        C  0.81459871  0.69875167  0.37083657     1.03820
O932        O  0.86612605  0.64863600  0.41104163    -1.13370
O933        O  0.87229094  0.68288378  0.47736395    -0.75800
O934        O  0.89528316  0.71127867  0.43424711    -0.79290
O935        O  0.85789134  0.61182560  0.34610676    -0.79980
C936        C  0.88430483  0.70952160  0.46630098     0.95280
O937        O  0.92953646  0.65852618  0.38887385    -0.77940
O938        O  0.83618003  0.62380759  0.47592624    -0.83130
C939        C  0.86808263  0.56974083  0.43327595     0.97900
C940        C  0.80840815  0.63015933  0.46345961     1.03820
O941        O  0.84330772  0.57911031  0.41532755    -0.78770
C942        C  0.94281962  0.64661548  0.41704537     1.02120
Fe943      Fe  0.62421430  0.54719389  0.61544791     1.65780
Fe944      Fe  0.62822704  0.59229688  0.54056781     1.73250
Fe945      Fe  0.67789013  0.60984571  0.60825868     1.54420
O946        O  0.65869899  0.61339213  0.65883603    -0.82510
O947        O  0.67078110  0.57686005  0.52024686    -0.80810
O948        O  0.62039019  0.57476367  0.66318725    -0.85010
O949        O  0.66952785  0.52725211  0.63201425    -0.79870
O950        O  0.65511181  0.65490097  0.59406051    -0.81640
O951        O  0.60761160  0.54756796  0.53025694    -0.84390
C952        C  0.69864284  0.53768887  0.63136252     0.96380
C953        C  0.63718829  0.59839645  0.67641539     1.03820
O954        O  0.64347882  0.58314343  0.58908366    -1.13370
O955        O  0.58752581  0.60817088  0.56317458    -0.75800
O956        O  0.57759541  0.56540248  0.59952675    -0.79290
O957        O  0.70451253  0.56765793  0.62263754    -0.79980
C958        C  0.56834740  0.59136555  0.58192533     0.95280
O959        O  0.62862956  0.51575852  0.57100979    -0.77940
O960        O  0.64423988  0.63954017  0.53825115    -0.83130
C961        C  0.69652060  0.59117489  0.53022157     0.97900
C962        C  0.64801043  0.66183509  0.56153223     1.03820
O963        O  0.69984467  0.60753427  0.55945692    -0.78770
C964        C  0.62018990  0.52054309  0.53859629     1.02120
Fe965      Fe  0.62731954  0.79314668  0.38443492     1.65780
Fe966      Fe  0.62556557  0.84087345  0.45863599     1.73250
Fe967      Fe  0.67493460  0.85952994  0.39049069     1.54420
O968        O  0.69888341  0.81861323  0.36501066    -0.82510
O969        O  0.61448070  0.88833904  0.44601550    -0.80810
O970        O  0.67356258  0.77338169  0.38340001    -0.85010
O971        O  0.63406449  0.81634718  0.33406737    -0.79870
O972        O  0.70484089  0.85187852  0.43110519    -0.81640
O973        O  0.57902619  0.82962249  0.44276223    -0.84390
C974        C  0.63803118  0.84659435  0.32487399     0.96380
C975        C  0.69896304  0.78736243  0.37196773     1.03820
O976        O  0.64282868  0.83102424  0.41156271    -1.13370
O977        O  0.63475214  0.79503054  0.47704976    -0.75800
O978        O  0.61899369  0.76361716  0.43092328    -0.79290
O979        O  0.64586448  0.86881007  0.34741775    -0.79980
C980        C  0.62741114  0.76728327  0.46392526     0.95280
O981        O  0.58200895  0.81469926  0.38491923    -0.77940
O982        O  0.67100878  0.85320764  0.47718365    -0.83130
C983        C  0.63534964  0.90977176  0.43931970     0.97900
C984        C  0.69879259  0.85564109  0.46382027     1.03820
O985        O  0.65855777  0.90337690  0.41790655    -0.78770
C986        C  0.56738196  0.82849807  0.41099086     1.02120
Fe987      Fe  0.88543926  0.94080414  0.61638400     1.65780
Fe988      Fe  0.88794083  0.89258535  0.54257874     1.73250
Fe989      Fe  0.83511414  0.87653339  0.60861026     1.54410
O990        O  0.86173764  0.86552151  0.65390988    -0.82510
O991        O  0.84310068  0.88061750  0.52113462    -0.80810
O992        O  0.87780588  0.91713541  0.66615162    -0.85010
O993        O  0.83934337  0.96199608  0.61755290    -0.79870
O994        O  0.84988215  0.83204799  0.58123874    -0.81640
O995        O  0.88162250  0.93842280  0.52264988    -0.84390
C996        C  0.81341273  0.94890344  0.62892264     0.96380
C997        C  0.87166223  0.88744298  0.67606648     1.03820
O998        O  0.86923757  0.90364789  0.58886625    -1.13370
O999        O  0.93464669  0.90128054  0.56022501    -0.75800
O1000       O  0.93093290  0.91800735  0.61717929    -0.79290
O1001       O  0.81241486  0.91755492  0.63468360    -0.79980
C1002       C  0.94567943  0.90243001  0.59227690     0.95280
O1003       O  0.89420129  0.97035400  0.56973429    -0.77940
O1004       O  0.89590656  0.84641641  0.55809025    -0.83130
C1005       C  0.81471936  0.88138077  0.53332024     0.97900
C1006       C  0.87392366  0.82572748  0.56108474     1.03820
O1007       O  0.80777164  0.88693591  0.56573056    -0.78770
C1008       C  0.88767392  0.96639418  0.53615652     1.02120
Fe1009     Fe  0.12536567  0.68750653  0.11113831     1.65780
Fe1010     Fe  0.12668198  0.63647039  0.04044748     1.73250
Fe1011     Fe  0.17979506  0.62724574  0.10712194     1.54420
O1012       O  0.20017132  0.66999462  0.13147096    -0.82510
O1013       O  0.11761256  0.59146547  0.06242512    -0.80810
O1014       O  0.17009593  0.71178686  0.11374460    -0.85010
O1015       O  0.13242234  0.66542128  0.16236073    -0.79870
O1016       O  0.20508284  0.63951558  0.06397368    -0.81640
O1017       O  0.08059946  0.65140926  0.05178891    -0.84390
C1018       C  0.14121467  0.63642767  0.17266209     0.96380
C1019       C  0.19735312  0.70082571  0.12429353     1.03820
O1020       O  0.14412047  0.65084590  0.08629313    -1.13370
O1021       O  0.13497477  0.68038545  0.01772529    -0.75800
O1022       O  0.11777281  0.71332378  0.06176096    -0.79290
O1023       O  0.15436603  0.61565836  0.15174669    -0.79980
C1024       C  0.12625138  0.70845748  0.02889655     0.95280
O1025       O  0.08070003  0.66260219  0.10948407    -0.77940
O1026       O  0.17115665  0.62197917  0.02169493    -0.83130
C1027       C  0.14041137  0.57146537  0.06767784     0.97900
C1028       C  0.19882504  0.63157789  0.03185284     1.03820
O1029       O  0.16638601  0.58126799  0.08290092    -0.78770
C1030       C  0.06697805  0.64990810  0.08182567     1.02120
Fe1031     Fe  0.38364552  0.54305803  0.88651570     1.65780
Fe1032     Fe  0.38470028  0.58960195  0.96349690     1.73250
Fe1033     Fe  0.33387894  0.60970256  0.89606338     1.54420
O1034       O  0.35366876  0.61343997  0.84697046    -0.82510
O1035       O  0.34038140  0.58631444  0.98627063    -0.80810
O1036       O  0.38292477  0.56830894  0.83737935    -0.85010
O1037       O  0.33766855  0.52409391  0.87779769    -0.79870
O1038       O  0.35874376  0.65397981  0.91009187    -0.81640
O1039       O  0.39364306  0.54271507  0.97851507    -0.84390
C1040       C  0.30939801  0.53631993  0.87822582     0.96380
C1041       C  0.37054199  0.59546436  0.82687554     1.03820
O1042       O  0.36715236  0.58045590  0.91521870    -1.13370
O1043       O  0.42907937  0.59580474  0.94053792    -0.75800
O1044       O  0.43056363  0.56136889  0.89282125    -0.79290
O1045       O  0.30467277  0.56772489  0.88207994    -0.79980
C1046       C  0.44268278  0.58444955  0.91246490     0.95280
O1047       O  0.38510010  0.51095849  0.93099217    -0.77940
O1048       O  0.37827450  0.63825941  0.96233988    -0.83130
C1049       C  0.31470007  0.59918840  0.97427429     0.97900
C1050       C  0.37233694  0.66054988  0.94023007     1.03820
O1051       O  0.31108873  0.61059411  0.94302270    -0.78770
C1052       C  0.38863500  0.51483378  0.96477911     1.02120
Fe1053     Fe  0.12378073  0.93979279  0.88640613     1.65780
Fe1054     Fe  0.12237574  0.89360235  0.96307889     1.73250
Fe1055     Fe  0.17206857  0.87188626  0.89558923     1.54420
O1056       O  0.15374302  0.86946123  0.84433317    -0.82510
O1057       O  0.16707022  0.89626162  0.98696599    -0.80810
O1058       O  0.12490568  0.91535365  0.83665674    -0.85010
O1059       O  0.17050693  0.95769710  0.87979101    -0.79870
O1060       O  0.14595837  0.82849614  0.90834659    -0.81640
O1061       O  0.11447253  0.94085601  0.97818427    -0.84390
C1062       C  0.19825086  0.94406635  0.87930867     0.96380
C1063       C  0.13751532  0.88882926  0.82470469     1.03820
O1064       O  0.13957066  0.90203707  0.91478719    -1.13370
O1065       O  0.07763713  0.88845726  0.93993698    -0.75800
O1066       O  0.07636600  0.92172745  0.89150247    -0.79290
O1067       O  0.20177660  0.91258085  0.88260458    -0.79980
C1068       C  0.06385771  0.89954619  0.91171541     0.95280
O1069       O  0.12225531  0.97225961  0.93067159    -0.77940
O1070       O  0.12745256  0.84447995  0.96097019    -0.83130
C1071       C  0.19190153  0.88114236  0.97583036     0.97900
C1072       C  0.13293544  0.82208161  0.93849922     1.03820
O1073       O  0.19469327  0.87011129  0.94405464    -0.78770
C1074       C  0.11881890  0.96863009  0.96429204     1.02120
Fe1075     Fe  0.38483388  0.79409441  0.11194931     1.65780
Fe1076     Fe  0.38586075  0.84615731  0.04381750     1.73250
Fe1077     Fe  0.33829381  0.86044721  0.11231538     1.54420
O1078       O  0.31460678  0.81864384  0.13600822    -0.82510
O1079       O  0.40144408  0.88689984  0.07017055    -0.80810
O1080       O  0.33856003  0.77435891  0.11199186    -0.85010
O1081       O  0.37729024  0.81383119  0.16461479    -0.79870
O1082       O  0.30775426  0.85450667  0.07201332    -0.81640
O1083       O  0.43060044  0.82673330  0.05518013    -0.84390
C1084       C  0.37459731  0.84397650  0.17535134     0.96380
C1085       C  0.31374802  0.78798815  0.12580826     1.03820
O1086       O  0.36798269  0.83210126  0.08818425    -1.13370
O1087       O  0.37264463  0.80399280  0.01902445    -0.75800
O1088       O  0.39222406  0.77033777  0.06097794    -0.79290
O1089       O  0.37062190  0.86679522  0.15282361    -0.79980
C1090       C  0.38357618  0.77610704  0.02814825     0.95280
O1091       O  0.43082452  0.81627562  0.11288934    -0.77940
O1092       O  0.34112822  0.86647703  0.02708763    -0.83130
C1093       C  0.38114732  0.90938088  0.07022767     0.97900
C1094       C  0.31297745  0.86309989  0.04017942     1.03820
O1095       O  0.35491889  0.90463668  0.08694709    -0.78770
C1096       C  0.44460787  0.82857392  0.08550956     1.02120
Fe1097     Fe  0.12508614  0.54325506  0.38302024     1.65780
Fe1098     Fe  0.12225926  0.59423107  0.45462785     1.73250
Fe1099     Fe  0.17331355  0.60852547  0.38835110     1.54420
O1100       O  0.19793333  0.56754550  0.36453143    -0.82510
O1101       O  0.10847949  0.63912791  0.43522163    -0.80810
O1102       O  0.17146785  0.52311068  0.38183833    -0.85010
O1103       O  0.13120299  0.56540704  0.33177481    -0.79870
O1104       O  0.19926058  0.59816072  0.43218771    -0.81640
O1105       O  0.07747643  0.57577885  0.44153700    -0.84390
C1106       C  0.13760640  0.59490640  0.32122624     0.96380
C1107       C  0.19735270  0.53630933  0.37073097     1.03820
O1108       O  0.13996314  0.58197796  0.40830715    -1.13370
O1109       O  0.13604550  0.54994898  0.47604014    -0.75800
O1110       O  0.11883467  0.51633185  0.43186472    -0.79290
O1111       O  0.14729333  0.61743384  0.34268549    -0.79980
C1112       C  0.12901365  0.52131324  0.46422452     0.95280
O1113       O  0.07903388  0.56416166  0.38327130    -0.77940
O1114       O  0.16475758  0.61537261  0.47276542    -0.83130
C1115       C  0.12967430  0.66103086  0.43056502     0.97900
C1116       C  0.19318559  0.61233064  0.46142689     1.03820
O1117       O  0.15521671  0.65346164  0.41307280    -0.78770
C1118       C  0.06446548  0.57583436  0.41055349     1.02120
Fe1119     Fe  0.38417721  0.68721039  0.61765451     1.65780
Fe1120     Fe  0.37938715  0.64348715  0.53926297     1.73250
Fe1121     Fe  0.33639980  0.61892081  0.60938793     1.54410
O1122       O  0.35542720  0.62011670  0.66020912    -0.82510
O1123       O  0.33260363  0.64820285  0.52430235    -0.80810
O1124       O  0.38980826  0.66176677  0.66579622    -0.85010
O1125       O  0.33778347  0.70255738  0.63200339    -0.79870
O1126       O  0.36426284  0.57676888  0.59630210    -0.81640
O1127       O  0.38397029  0.69156968  0.52555918    -0.84390
C1128       C  0.30940581  0.69063515  0.62916531     0.96380
C1129       C  0.37462971  0.63753434  0.67884450     1.03820
O1130       O  0.36739278  0.64973669  0.58949384    -1.13370
O1131       O  0.42608272  0.63944702  0.55467823    -0.75800
O1132       O  0.43096355  0.67152992  0.60445750    -0.79290
O1133       O  0.30512717  0.65988289  0.62067221    -0.79980
C1134       C  0.44221043  0.65114378  0.58101551     0.95280
O1135       O  0.37975618  0.72102186  0.57549031    -0.77940
O1136       O  0.37634957  0.59313331  0.54100415    -0.83130
C1137       C  0.31018749  0.62993825  0.53515954     0.97900
C1138       C  0.37338165  0.57058730  0.56410748     1.03820
O1139       O  0.31372722  0.61134278  0.56174573    -0.78770
C1140       C  0.38014084  0.71869173  0.54150885     1.02120
Fe1141     Fe  0.12486638  0.79404191  0.61563970     1.65780
Fe1142     Fe  0.12560781  0.84433282  0.54310086     1.73250
Fe1143     Fe  0.17860010  0.85374132  0.60953658     1.54410
O1144       O  0.15211416  0.86909939  0.65241927    -0.82510
O1145       O  0.17218464  0.85357825  0.52411640    -0.80810
O1146       O  0.13366719  0.81851182  0.66578543    -0.85010
O1147       O  0.16946747  0.77021533  0.61611688    -0.79870
O1148       O  0.16916484  0.89965722  0.58064368    -0.81640
O1149       O  0.12962977  0.79731672  0.52286881    -0.84390
C1150       C  0.19542677  0.78146168  0.62959535     0.96380
C1151       C  0.14084548  0.84849425  0.67483258     1.03820
O1152       O  0.14208740  0.83102669  0.58964088    -1.13370
O1153       O  0.07837407  0.83781242  0.55946815    -0.75800
O1154       O  0.08069584  0.81746979  0.61546092    -0.79290
O1155       O  0.19661974  0.81214077  0.63848093    -0.79980
C1156       C  0.06647055  0.83357152  0.59063111     0.95280
O1157       O  0.11450777  0.76553273  0.56854896    -0.77940
O1158       O  0.12035061  0.89271003  0.55890347    -0.83130
C1159       C  0.19967706  0.84599367  0.53734042     0.97900
C1160       C  0.14459395  0.91097647  0.56344658     1.03820
O1161       O  0.20321536  0.83499093  0.56851445    -0.78770
C1162       C  0.12205024  0.76936337  0.53549253     1.02120
Fe1163     Fe  0.38631152  0.93803573  0.38541362     1.65780
Fe1164     Fe  0.38697934  0.88794064  0.45642616     1.73250
Fe1165     Fe  0.33210364  0.87795559  0.39187037     1.54420
O1166       O  0.31338217  0.91921025  0.36363381    -0.82510
O1167       O  0.39189045  0.84362534  0.43367910    -0.80810
O1168       O  0.34103769  0.96169770  0.38441336    -0.85010
O1169       O  0.37761607  0.91354622  0.33562980    -0.79870
O1170       O  0.30771266  0.89465416  0.43440546    -0.81640
O1171       O  0.43411210  0.89573475  0.44102391    -0.84390
C1172       C  0.36994807  0.88382668  0.32612030     0.96380
C1173       C  0.31469316  0.94997240  0.37188588     1.03820
O1174       O  0.36849751  0.90202232  0.41142539    -1.13370
O1175       O  0.38239707  0.93315580  0.47940544    -0.75800
O1176       O  0.39568027  0.96602677  0.43357979    -0.79290
O1177       O  0.35776755  0.86319531  0.34788731    -0.79980
C1178       C  0.38847175  0.96144974  0.46679329     0.95280
O1179       O  0.43118590  0.91346989  0.38471748    -0.77940
O1180       O  0.34154736  0.87616720  0.47632536    -0.83130
C1181       C  0.36879023  0.82456963  0.43657903     0.97900
C1182       C  0.31320876  0.88193083  0.46462962     1.03820
O1183       O  0.34274174  0.83273416  0.42059398    -0.78770
C1184       C  0.44555180  0.89718726  0.40949466     1.02120
C1185       C  0.25445809  0.86923435  0.53822852    -0.02680
C1186       C  0.22921061  0.85329473  0.51872713     0.07000
C1187       C  0.23254006  0.84513301  0.48232268    -0.02790
C1188       C  0.26101091  0.85313814  0.46506658    -0.02800
C1189       C  0.28561344  0.87026277  0.48414970     0.07130
C1190       C  0.28279895  0.87741204  0.52084520    -0.02990
Br1191     Br  0.31648002  0.90080069  0.54678959    -0.01540
Br1192     Br  0.24884750  0.88572103  0.58699715    -0.01610
Br1193     Br  0.26603280  0.83923407  0.41549661    -0.01570
Br1194     Br  0.19835201  0.82314452  0.45591052    -0.01560
C1195       C  0.28386344  0.74955623  0.63372791    -0.02680
C1196       C  0.28046117  0.71421159  0.63435690     0.07000
C1197       C  0.24868494  0.70211922  0.63908502    -0.02790
C1198       C  0.22135161  0.72335622  0.63643442    -0.02800
C1199       C  0.22469412  0.75847447  0.63437733     0.07130
C1200       C  0.25664003  0.77103593  0.63579010    -0.02990
Br1201     Br  0.26450721  0.81798242  0.64157709    -0.01540
Br1202     Br  0.32561293  0.77053525  0.63001001    -0.01610
Br1203     Br  0.17925899  0.70301460  0.63741897    -0.01570
Br1204     Br  0.24168648  0.65750986  0.65534572    -0.01560
C1205       C  0.34882735  0.74941761  0.49496532    -0.02680
C1206       C  0.37562335  0.74796757  0.51837395     0.07000
C1207       C  0.40027108  0.77114515  0.51510300    -0.02790
C1208       C  0.39777686  0.79662842  0.48942963    -0.02800
C1209       C  0.37172955  0.79698028  0.46361857     0.07130
C1210       C  0.34778307  0.77228741  0.46642995    -0.02990
Br1211     Br  0.31460091  0.76718907  0.43028252    -0.01540
Br1212     Br  0.31259857  0.72079964  0.50307112    -0.01610
Br1213     Br  0.43049557  0.83074110  0.49308467    -0.01570
Br1214     Br  0.43824098  0.76672814  0.54522778    -0.01560
C1215       C  0.35479016  0.99677931  0.50684116    -0.02680
C1216       C  0.38539653  0.98941985  0.49272513     0.07000
C1217       C  0.41268008  0.50454633  0.50821785    -0.02790
C1218       C  0.40918202  0.52841325  0.53596941    -0.02800
C1219       C  0.37846100  0.53673201  0.54933208     0.07130
C1220       C  0.35142044  0.51985547  0.53528211    -0.02990
Br1221     Br  0.30921120  0.53054440  0.55289966    -0.01540
Br1222     Br  0.31701543  0.97665242  0.48545625    -0.01610
Br1223     Br  0.44644980  0.55122869  0.55446955    -0.01570
Br1224     Br  0.45475066  0.99256065  0.49124199    -0.01560
C1225       C  0.28721597  0.50746866  0.36601083    -0.02680
C1226       C  0.28480700  0.97224322  0.36706316     0.07000
C1227       C  0.25315214  0.95873386  0.36425226    -0.02790
C1228       C  0.22538547  0.97949797  0.36258588    -0.02800
C1229       C  0.22764949  0.51464672  0.36581803     0.07130
C1230       C  0.25932661  0.52818790  0.36594372    -0.02990
Br1231     Br  0.26606265  0.57548425  0.36558823    -0.01540
Br1232     Br  0.32890216  0.52844131  0.36251494    -0.01610
Br1233     Br  0.18418352  0.95878012  0.35295692    -0.01570
Br1234     Br  0.24607387  0.91132874  0.36330153    -0.01560
C1235       C  0.15438192  0.71059969  0.46425445    -0.02680
C1236       C  0.12667338  0.69300561  0.45225894     0.07000
C1237       C  0.09670000  0.70220538  0.46783381    -0.02790
C1238       C  0.09520865  0.72602336  0.49603768    -0.02800
C1239       C  0.12335647  0.74077088  0.50981131     0.07130
C1240       C  0.15291628  0.73266906  0.49391223    -0.02990
Br1241     Br  0.19204327  0.75084729  0.51443571    -0.01540
Br1242     Br  0.19438593  0.70772991  0.43925928    -0.01610
Br1243     Br  0.05439651  0.73917065  0.51550029    -0.01570
Br1244     Br  0.05667312  0.68441705  0.44953113    -0.01560
C1245       C  0.16229753  0.97577739  0.49112263    -0.02680
C1246       C  0.13314816  0.99334942  0.48985497     0.07000
C1247       C  0.11089564  0.98851432  0.51756865    -0.02790
C1248       C  0.11636336  0.96409972  0.54414339    -0.02800
C1249       C  0.14425738  0.94391294  0.54381005     0.07130
C1250       C  0.16797987  0.95171303  0.51805811    -0.02990
Br1251     Br  0.20918387  0.93142170  0.51963801    -0.01540
Br1252     Br  0.19508731  0.98575372  0.45640663    -0.01610
Br1253     Br  0.08689943  0.96122360  0.58307832    -0.01570
Br1254     Br  0.07308206  0.51609590  0.51957896    -0.01560
C1255       C  0.25099193  0.62158141  0.53633349    -0.02680
C1256       C  0.27920950  0.62941706  0.51678263     0.07000
C1257       C  0.27739472  0.63642158  0.47972056    -0.02790
C1258       C  0.24769736  0.63546187  0.46244091    -0.02800
C1259       C  0.22023183  0.62541254  0.48162510     0.07130
C1260       C  0.22128286  0.62163316  0.51901534    -0.02990
Br1261     Br  0.18265118  0.61473424  0.54687727    -0.01540
Br1262     Br  0.25153390  0.60585203  0.58546007    -0.01610
Br1263     Br  0.24534931  0.64755235  0.41199640    -0.01570
Br1264     Br  0.31539980  0.64159747  0.45039061    -0.01560
C1265       C  0.39056324  0.83513241  0.24076425    -0.02680
C1266       C  0.37369122  0.85342384  0.21430687     0.07000
C1267       C  0.35525813  0.88150365  0.22534806    -0.02790
C1268       C  0.35575710  0.89221434  0.26145900    -0.02800
C1269       C  0.37251758  0.87386041  0.28770253     0.07130
C1270       C  0.38897838  0.84470849  0.27731272    -0.02990
Br1271     Br  0.40940921  0.81744811  0.31299221    -0.01540
Br1272     Br  0.41678036  0.79741631  0.22761898    -0.01610
Br1273     Br  0.33109901  0.93095932  0.27535262    -0.01570
Br1274     Br  0.32626748  0.90438502  0.19260788    -0.01560
C1275       C  0.16455600  0.88518833  0.76562054    -0.02680
C1276       C  0.13633225  0.88111233  0.78570795     0.07000
C1277       C  0.10906235  0.86666141  0.76930451    -0.02790
C1278       C  0.11028899  0.85555762  0.73313173    -0.02800
C1279       C  0.13875814  0.85934957  0.71308748     0.07130
C1280       C  0.16590088  0.87424497  0.72967671    -0.02990
Br1281     Br  0.20614500  0.87766297  0.70432607    -0.01540
Br1282     Br  0.20176119  0.90591231  0.78761541    -0.01610
Br1283     Br  0.07284347  0.83557068  0.71119298    -0.01570
Br1284     Br  0.07034735  0.86169331  0.79668910    -0.01560
C1285       C  0.23485627  0.90180439  0.01703937    -0.02680
C1286       C  0.21977390  0.87534015  0.99901929     0.07000
C1287       C  0.23561126  0.84451347  0.99568577    -0.02790
C1288       C  0.26768164  0.84149285  0.00609025    -0.02800
C1289       C  0.28414046  0.86934075  0.01953454     0.07130
C1290       C  0.26743204  0.89917864  0.02621823    -0.02990
Br1291     Br  0.28852933  0.93566164  0.05027398    -0.01540
Br1292     Br  0.21082130  0.94039455  0.03129312    -0.01610
Br1293     Br  0.28790199  0.79830151  0.00582271    -0.01570
Br1294     Br  0.21271593  0.80571407  0.97896775    -0.01560
C1295       C  0.34476189  0.61497040  0.77052885    -0.02680
C1296       C  0.37324513  0.60659987  0.78921986     0.07000
C1297       C  0.40316824  0.61341932  0.77339869    -0.02790
C1298       C  0.40436161  0.62656444  0.73816703    -0.02800
C1299       C  0.37567310  0.63048379  0.71796272     0.07130
C1300       C  0.34598550  0.62655500  0.73527658    -0.02990
Br1301     Br  0.30643816  0.64016174  0.71203328    -0.01540
Br1302     Br  0.30329925  0.61163641  0.79293040    -0.01610
Br1303     Br  0.44459996  0.64208290  0.71979475    -0.01570
Br1304     Br  0.44214976  0.60710439  0.80092173    -0.01560
C1305       C  0.28182684  0.98271812  0.89757558    -0.02680
C1306       C  0.28120024  0.51211477  0.87650028     0.07000
C1307       C  0.25338785  0.51778250  0.85507266    -0.02790
C1308       C  0.22738835  0.99485252  0.85436779    -0.02800
C1309       C  0.22768206  0.96616615  0.87631875     0.07130
C1310       C  0.25555396  0.96026663  0.89756868    -0.02990
Br1311     Br  0.25775241  0.92232985  0.92901856    -0.01540
Br1312     Br  0.31727703  0.97411654  0.93016429    -0.01610
Br1313     Br  0.19212542  0.00196982  0.82108964    -0.01570
Br1314     Br  0.25035776  0.55664300  0.82576332    -0.01560
C1315       C  0.36871185  0.49109991  0.02292207    -0.02680
C1316       C  0.38621728  0.98684634  0.99052626     0.07000
C1317       C  0.40329126  0.95726977  0.98509567    -0.02790
C1318       C  0.40180641  0.93178223  0.01088844    -0.02800
C1319       C  0.38527560  0.93690539  0.04414027     0.07130
C1320       C  0.37030963  0.96747379  0.05042788    -0.02990
Br1321     Br  0.35355560  0.97808503  0.09759647    -0.01540
Br1322     Br  0.33912895  0.52709713  0.02946565    -0.01610
Br1323     Br  0.42178196  0.89000331  0.99807632    -0.01570
Br1324     Br  0.42962125  0.95206929  0.94279582    -0.01560
C1325       C  0.36479597  0.72294881  0.94486879    -0.02680
C1326       C  0.38226867  0.69414108  0.95322923     0.07000
C1327       C  0.40677815  0.69623684  0.98031726    -0.02790
C1328       C  0.40803510  0.72340862  0.00405419    -0.02800
C1329       C  0.38652125  0.75005949  0.99945404     0.07130
C1330       C  0.36868847  0.75165852  0.96643120    -0.02990
Br1331     Br  0.35246942  0.79296453  0.94718713    -0.01540
Br1332     Br  0.33455002  0.72315155  0.90521446    -0.01610
Br1333     Br  0.44128425  0.72459144  0.04098328    -0.01570
Br1334     Br  0.43894429  0.66176717  0.98649737    -0.01560
C1335       C  0.16780711  0.62239227  0.23062837    -0.02680
C1336       C  0.13908620  0.62676895  0.21088460     0.07000
C1337       C  0.10958734  0.61804938  0.22650800    -0.02790
C1338       C  0.10885727  0.60553707  0.26199649    -0.02800
C1339       C  0.13751122  0.60314179  0.28240911     0.07130
C1340       C  0.16700094  0.61127137  0.26629870    -0.02990
Br1341     Br  0.20693812  0.60606141  0.29250804    -0.01540
Br1342     Br  0.20874069  0.63126149  0.20876100    -0.01610
Br1343     Br  0.06889260  0.59109890  0.28210531    -0.01570
Br1344     Br  0.07053295  0.62212355  0.19873659    -0.01560
C1345       C  0.25803661  0.71195014  0.13756292    -0.02680
C1346       C  0.22674670  0.72418456  0.12796465     0.07000
C1347       C  0.22465438  0.75892478  0.12015776    -0.02790
C1348       C  0.25238932  0.77979550  0.12094522    -0.02800
C1349       C  0.28328256  0.76717511  0.12979029     0.07130
C1350       C  0.28528120  0.73331539  0.13949940    -0.02990
Br1351     Br  0.32565467  0.71619877  0.15792575    -0.01540
Br1352     Br  0.26613221  0.66537014  0.14631140    -0.01610
Br1353     Br  0.24752245  0.82598103  0.10831968    -0.01570
Br1354     Br  0.18424192  0.77949015  0.10672291    -0.01560
C1355       C  0.09982845  0.00334085  0.01579954    -0.02680
C1356       C  0.12364180  0.99625866  0.99010601     0.07000
C1357       C  0.15522765  0.50772599  0.99629969    -0.02790
C1358       C  0.16246038  0.52741955  0.02686022    -0.02800
C1359       C  0.13757093  0.53857808  0.04942877     0.07130
C1360       C  0.10682817  0.52425475  0.04537056    -0.02990
Br1361     Br  0.07530959  0.53134771  0.08236965    -0.01540
Br1362     Br  0.05752458  0.98442975  0.01027272    -0.01610
Br1363     Br  0.20660925  0.53618829  0.03961954    -0.01570
Br1364     Br  0.18887863  0.99509271  0.96347465    -0.01560
C1365       C  0.10003471  0.78555703  0.97799237    -0.02680
C1366       C  0.12437946  0.78828687  0.95142341     0.07000
C1367       C  0.14540527  0.76146344  0.94631789    -0.02790
C1368       C  0.14661215  0.73568057  0.97188552    -0.02800
C1369       C  0.12499517  0.73542221  0.00156852     0.07130
C1370       C  0.10041223  0.75940401  0.00281930    -0.02990
Br1371     Br  0.06640780  0.75663920  0.03797504    -0.01540
Br1372     Br  0.06616487  0.81836380  0.98219671    -0.01610
Br1373     Br  0.18007186  0.70267294  0.96644673    -0.01570
Br1374     Br  0.17338485  0.76048925  0.90511024    -0.01560
C1375       C  0.22936112  0.60079959  0.98695653    -0.02680
C1376       C  0.22626070  0.62935979  0.00819911     0.07000
C1377       C  0.25360646  0.64798177  0.01799556    -0.02790
C1378       C  0.28401526  0.63443336  0.01301395    -0.02800
C1379       C  0.28690795  0.60332376  0.99614024     0.07130
C1380       C  0.25951762  0.58619186  0.98386065    -0.02990
Br1381     Br  0.26397889  0.54382219  0.96045905    -0.01540
Br1382     Br  0.19344406  0.58402359  0.95920799    -0.01610
Br1383     Br  0.32175980  0.65952487  0.02652526    -0.01570
Br1384     Br  0.24889520  0.69254391  0.03677488    -0.01560
C1385       C  0.97733394  0.84889190  0.59608668    -0.02680
C1386       C  0.97623464  0.88396236  0.60008133     0.07000
C1387       C  0.00486667  0.90026242  0.61021164    -0.02790
C1388       C  0.03394259  0.88205140  0.61189278    -0.02800
C1389       C  0.03525738  0.84933021  0.59829146     0.07130
C1390       C  0.00668529  0.83222661  0.59207910    -0.02990
Br1391     Br  0.00784541  0.78532153  0.58145254    -0.01540
Br1392     Br  0.94119838  0.82196030  0.60685384    -0.01610
Br1393     Br  0.07061972  0.89913449  0.63761885    -0.01570
Br1394     Br  0.00425528  0.94677776  0.62202784    -0.01560
C1395       C  0.47813998  0.84386283  0.40739191    -0.02680
C1396       C  0.47636497  0.87882345  0.40242861     0.07000
C1397       C  0.50489940  0.89549049  0.39338303    -0.02790
C1398       C  0.53428381  0.87775209  0.39226829    -0.02800
C1399       C  0.53601011  0.84465500  0.40455378     0.07130
C1400       C  0.50774334  0.82776988  0.41207521    -0.02990
Br1401     Br  0.50961022  0.78197667  0.42723759    -0.01540
Br1402     Br  0.44276744  0.81546816  0.39688121    -0.01610
Br1403     Br  0.57183717  0.89785371  0.37241260    -0.01570
Br1404     Br  0.50393530  0.94219697  0.38274071    -0.01560
C1405       C  0.74104026  0.89489306  0.48018170    -0.02680
C1406       C  0.72578879  0.86418008  0.48603036     0.07000
C1407       C  0.74128668  0.83861518  0.50436079    -0.02790
C1408       C  0.77311258  0.84272017  0.51470618    -0.02800
C1409       C  0.78799325  0.87373876  0.51027861     0.07130
C1410       C  0.77211489  0.89985101  0.49309284    -0.02990
Br1411     Br  0.79295212  0.94211097  0.48744092    -0.01540
Br1412     Br  0.71984007  0.93024729  0.45458671    -0.01610
Br1413     Br  0.79616530  0.80528125  0.53356173    -0.01570
Br1414     Br  0.71889161  0.79821042  0.51525548    -0.01560
C1415       C  0.48273658  0.61408751  0.61020599    -0.02680
C1416       C  0.47524737  0.63846715  0.58428586     0.07000
C1417       C  0.49621809  0.64362380  0.55562234    -0.02790
C1418       C  0.52425957  0.62457892  0.55276603    -0.02800
C1419       C  0.53452194  0.60387775  0.58173993     0.07130
C1420       C  0.51301968  0.59826524  0.61033045    -0.02990
Br1421     Br  0.52346645  0.56822515  0.64898778    -0.01540
Br1422     Br  0.44961009  0.59838326  0.64165618    -0.01610
Br1423     Br  0.54555921  0.62433909  0.50649944    -0.01570
Br1424     Br  0.48548031  0.67588729  0.51902149    -0.01560
C1425       C  0.75916864  0.52664539  0.64418248    -0.02680
C1426       C  0.72735471  0.51417282  0.63876493     0.07000
C1427       C  0.72428298  0.97896021  0.63771320    -0.02790
C1428       C  0.75172267  0.95787430  0.63399932    -0.02800
C1429       C  0.78361540  0.97080420  0.63548024     0.07130
C1430       C  0.78658274  0.50534459  0.64301669    -0.02990
Br1431     Br  0.82831918  0.52416668  0.65393007    -0.01540
Br1432     Br  0.76635327  0.57308488  0.65539544    -0.01610
Br1433     Br  0.74421380  0.91119500  0.62491205    -0.01570
Br1434     Br  0.68289601  0.95832519  0.64467586    -0.01560
C1435       C  0.64745211  0.96916654  0.51758276    -0.02680
C1436       C  0.62566877  0.99475138  0.51025560     0.07000
C1437       C  0.61059911  0.99500855  0.47558419    -0.02790
C1438       C  0.61742548  0.96936577  0.45031325    -0.02800
C1439       C  0.63427743  0.94074933  0.46148320     0.07130
C1440       C  0.64637326  0.94030213  0.49721510    -0.02990
Br1441     Br  0.65152919  0.90112729  0.52549749    -0.01540
Br1442     Br  0.68202253  0.97374508  0.55210267    -0.01610
Br1443     Br  0.60239565  0.97284883  0.40144293    -0.01570
Br1444     Br  0.58017514  0.52899467  0.46187958    -0.01560
C1445       C  0.61397308  0.70921849  0.54253605    -0.02680
C1446       C  0.64502098  0.69568428  0.54698633     0.07000
C1447       C  0.66950506  0.70578749  0.52355834    -0.02790
C1448       C  0.66233051  0.72595686  0.49372279    -0.02800
C1449       C  0.63129116  0.73900497  0.48880824     0.07130
C1450       C  0.60739638  0.73164338  0.51423807    -0.02990
Br1451     Br  0.56558424  0.75177053  0.50975969    -0.01540
Br1452     Br  0.58021936  0.69547929  0.57428454    -0.01610
Br1453     Br  0.69463675  0.73523093  0.45848359    -0.01570
Br1454     Br  0.71274278  0.69043848  0.53190977    -0.01560
C1455       C  0.98068867  0.60046489  0.43673750    -0.02680
C1456       C  0.97452229  0.62883610  0.41496615     0.07000
C1457       C  0.99842739  0.63872793  0.39033943    -0.02790
C1458       C  0.02752501  0.62068251  0.38769773    -0.02800
C1459       C  0.03206710  0.59105425  0.40730522     0.07130
C1460       C  0.00792677  0.58057165  0.43069892    -0.02990
Br1461     Br  0.01234165  0.53824619  0.45439807    -0.01540
Br1462     Br  0.95473100  0.58924993  0.47777556    -0.01610
Br1463     Br  0.06260150  0.63892446  0.36066243    -0.01570
Br1464     Br  0.99369551  0.67951792  0.36369955    -0.01560
C1465       C  0.75439825  0.71130566  0.35535512    -0.02680
C1466       C  0.78563770  0.72273760  0.36621100     0.07000
C1467       C  0.78805723  0.75740948  0.37461252    -0.02790
C1468       C  0.76037533  0.77840504  0.37576424    -0.02800
C1469       C  0.72927780  0.76627369  0.36690887     0.07130
C1470       C  0.72711597  0.73279461  0.35522803    -0.02990
Br1471     Br  0.68642199  0.71621374  0.33698240    -0.01540
Br1472     Br  0.74680579  0.66592651  0.34056542    -0.01610
Br1473     Br  0.76565570  0.82389348  0.39155211    -0.01570
Br1474     Br  0.82919972  0.77811692  0.38398142    -0.01560
C1475       C  0.85414417  0.50987317  0.50753145    -0.02680
C1476       C  0.88442151  0.99458545  0.51077827     0.07000
C1477       C  0.90655877  0.99838679  0.48247889    -0.02790
C1478       C  0.89968536  0.52014830  0.45363199    -0.02800
C1479       C  0.87000097  0.53697591  0.45173158     0.07130
C1480       C  0.84621847  0.52873182  0.47680439    -0.02990
Br1481     Br  0.80210872  0.53882400  0.46616819    -0.01540
Br1482     Br  0.82337630  0.50405836  0.54521018    -0.01610
Br1483     Br  0.92918523  0.52471370  0.41432214    -0.01570
Br1484     Br  0.94599828  0.97336266  0.48301361    -0.01560
C1485       C  0.89138925  0.77129476  0.47904818    -0.02680
C1486       C  0.88455928  0.73896844  0.49170214     0.07000
C1487       C  0.87636965  0.73536306  0.52894235    -0.02790
C1488       C  0.87215313  0.76350838  0.55141318    -0.02800
C1489       C  0.87672088  0.79552033  0.53780370     0.07130
C1490       C  0.88679887  0.79914794  0.50151874    -0.02990
Br1491     Br  0.89364706  0.84258876  0.48064642    -0.01540
Br1492     Br  0.90861180  0.77896052  0.43141134    -0.01610
Br1493     Br  0.86174256  0.75833555  0.60166765    -0.01570
Br1494     Br  0.87329075  0.69237513  0.55185084    -0.01560
C1495       C  0.74941820  0.63306224  0.46926786    -0.02680
C1496       C  0.77950125  0.62421955  0.48461715     0.07000
C1497       C  0.78069851  0.60224917  0.51397657    -0.02790
C1498       C  0.75308888  0.58470243  0.52277746    -0.02800
C1499       C  0.72360182  0.59287185  0.50681927     0.07130
C1500       C  0.72171389  0.61633303  0.47933122    -0.02990
Br1501     Br  0.68066945  0.62768201  0.45788309    -0.01540
Br1502     Br  0.74510587  0.67070657  0.43768080    -0.01610
Br1503     Br  0.75434278  0.54993548  0.55785081    -0.01570
Br1504     Br  0.81862807  0.59698404  0.54382888    -0.01560
C1505       C  0.51712582  0.87726993  0.05379844    -0.02680
C1506       C  0.52933206  0.89288994  0.08533546     0.07000
C1507       C  0.51136235  0.88917183  0.11726744    -0.02790
C1508       C  0.48480611  0.86688092  0.11846863    -0.02800
C1509       C  0.47597404  0.84748821  0.08776010     0.07130
C1510       C  0.49376068  0.85220013  0.05585770    -0.02990
Br1511     Br  0.48849942  0.82316987  0.01447665    -0.01540
Br1512     Br  0.52603977  0.89483995  0.00655053    -0.01610
Br1513     Br  0.46044626  0.86432176  0.16231055    -0.01570
Br1514     Br  0.51880984  0.91919429  0.15709321    -0.01560
C1515       C  0.66487614  0.87948812  0.23502975    -0.02680
C1516       C  0.63583846  0.88049340  0.21525447     0.07000
C1517       C  0.60762481  0.86783861  0.23077831    -0.02790
C1518       C  0.60800237  0.85633769  0.26664654    -0.02800
C1519       C  0.63693002  0.85630413  0.28658543     0.07130
C1520       C  0.66543638  0.86742751  0.27040741    -0.02990
Br1521     Br  0.70593430  0.86452605  0.29601201    -0.01540
Br1522     Br  0.70458600  0.89297705  0.21306740    -0.01610
Br1523     Br  0.56902345  0.84100839  0.28860075    -0.01570
Br1524     Br  0.56924948  0.86380432  0.20209774    -0.01560
C1525       C  0.00144617  0.83207590  0.90469084    -0.02680
C1526       C  0.97289091  0.85061024  0.90536179     0.07000
C1527       C  0.97436773  0.88489928  0.89721482    -0.02790
C1528       C  0.00404187  0.90183420  0.89808002    -0.02800
C1529       C  0.03262437  0.88363599  0.90207585     0.07130
C1530       C  0.03096283  0.84856365  0.90039852    -0.02990
Br1531     Br  0.06843778  0.82336313  0.88784189    -0.01540
Br1532     Br  0.00056092  0.78462650  0.91078145    -0.01610
Br1533     Br  0.00527394  0.94948156  0.89465711    -0.01570
Br1534     Br  0.93636239  0.90769513  0.88092950    -0.01560
C1535       C  0.88899296  0.83953863  0.76281650    -0.02680
C1536       C  0.87252658  0.85896210  0.78881984     0.07000
C1537       C  0.85858932  0.88959613  0.77753142    -0.02790
C1538       C  0.85822872  0.89857392  0.74086456    -0.02800
C1539       C  0.87393145  0.87873947  0.71504602     0.07130
C1540       C  0.88994967  0.84971841  0.72650566    -0.02990
Br1541     Br  0.91396730  0.82378681  0.69255690    -0.01540
Br1542     Br  0.90983352  0.79812136  0.77530876    -0.01610
Br1543     Br  0.83343509  0.93683027  0.72579336    -0.01570
Br1544     Br  0.84095658  0.92116574  0.81163643    -0.01560
C1545       C  0.77493187  0.83506544  0.02270649    -0.02680
C1546       C  0.78011851  0.84636727  0.98732703     0.07000
C1547       C  0.75344549  0.85853100  0.96646699    -0.02790
C1548       C  0.72291486  0.86055095  0.98157295    -0.02800
C1549       C  0.71924598  0.85318214  0.01789398     0.07130
C1550       C  0.74423955  0.83776727  0.03749439    -0.02990
Br1551     Br  0.73635549  0.82102861  0.08532404    -0.01540
Br1552     Br  0.80983539  0.82104212  0.05381264    -0.01610
Br1553     Br  0.68658731  0.87596879  0.95319293    -0.01570
Br1554     Br  0.75722388  0.87725473  0.91864082    -0.01560
C1555       C  0.50349300  0.65293164  0.90310251    -0.02680
C1556       C  0.53206601  0.63484120  0.90059073     0.07000
C1557       C  0.53073069  0.60063621  0.89204840    -0.02790
C1558       C  0.50147225  0.58321287  0.89478959    -0.02800
C1559       C  0.47308886  0.60096302  0.90190298     0.07130
C1560       C  0.47405525  0.63607060  0.90077294    -0.02990
Br1561     Br  0.43576878  0.66087292  0.89048046    -0.01540
Br1562     Br  0.50464288  0.70020357  0.91125513    -0.01610
Br1563     Br  0.50070209  0.53560548  0.88997030    -0.01570
Br1564     Br  0.56881430  0.57851576  0.87504602    -0.01560
C1565       C  0.66329597  0.61393668  0.77226902    -0.02680
C1566       C  0.63596855  0.62918727  0.78765551     0.07000
C1567       C  0.60806249  0.63362128  0.76619271    -0.02790
C1568       C  0.60782994  0.62330920  0.72965294    -0.02800
C1569       C  0.63482778  0.60710948  0.71507134     0.07130
C1570       C  0.66208763  0.60167958  0.73692482    -0.02990
Br1571     Br  0.69785781  0.57619207  0.71875120    -0.01540
Br1572     Br  0.70384506  0.61171018  0.79821146    -0.01610
Br1573     Br  0.57122829  0.63235968  0.69925091    -0.01570
Br1574     Br  0.56992174  0.65268062  0.78686095    -0.01560
C1575       C  0.75808863  0.70769685  0.87751609    -0.02680
C1576       C  0.72575295  0.71954032  0.87605894     0.07000
C1577       C  0.72162609  0.75467626  0.87211119    -0.02790
C1578       C  0.74841998  0.77627373  0.86922807    -0.02800
C1579       C  0.78010088  0.76503546  0.87571525     0.07130
C1580       C  0.78457968  0.73011524  0.87918367    -0.02990
Br1581     Br  0.82701240  0.71173601  0.88714821    -0.01540
Br1582     Br  0.76767075  0.66061492  0.87750304    -0.01610
Br1583     Br  0.74148673  0.82060078  0.85123410    -0.01570
Br1584     Br  0.67967914  0.77563301  0.87112455    -0.01560
C1585       C  0.65599978  0.51355983  0.95484559    -0.02680
C1586       C  0.62938318  0.53496779  0.95064309     0.07000
C1587       C  0.60099547  0.52824849  0.97045812    -0.02790
C1588       C  0.60066849  0.50339222  0.99677998    -0.02800
C1589       C  0.62853823  0.98486573  0.00386796     0.07130
C1590       C  0.65582638  0.98908150  0.98189139    -0.02990
Br1591     Br  0.69436770  0.96358994  0.99100560    -0.01540
Br1592     Br  0.69400960  0.51938325  0.92619362    -0.01610
Br1593     Br  0.56166541  0.49468933  0.02310660    -0.01570
Br1594     Br  0.56255964  0.55463154  0.96438885    -0.01560
C1595       C  0.60790738  0.79994804  0.01220264    -0.02680
C1596       C  0.62435378  0.79579201  0.04583019     0.07000
C1597       C  0.63937173  0.76524868  0.05295324    -0.02790
C1598       C  0.63870205  0.73971849  0.02688564    -0.02800
C1599       C  0.62074555  0.74332815  0.99429276     0.07130
C1600       C  0.60472882  0.77335569  0.98771902    -0.02990
Br1601     Br  0.57709549  0.77789103  0.94580255    -0.01540
Br1602     Br  0.59237967  0.84251602  0.99594913    -0.01610
Br1603     Br  0.66470030  0.70094191  0.03601922    -0.01570
Br1604     Br  0.66069505  0.75790081  0.09871934    -0.01560
C1605       C  0.98234383  0.62266766  0.11057745    -0.02680
C1606       C  0.97691616  0.59492011  0.08786866     0.07000
C1607       C  0.00034441  0.58627225  0.06256259    -0.02790
C1608       C  0.02838828  0.60540819  0.05898542    -0.02800
C1609       C  0.03532377  0.63189395  0.08364067     0.07130
C1610       C  0.01174920  0.64031937  0.10943429    -0.02990
Br1611     Br  0.01727485  0.67878453  0.14011810    -0.01540
Br1612     Br  0.94760984  0.63977871  0.13926240    -0.01610
Br1613     Br  0.05492635  0.59528829  0.01767099    -0.01570
Br1614     Br  0.99329150  0.54823695  0.03154814    -0.01560
C1615       C  0.84365696  0.61695775  0.26728035    -0.02680
C1616       C  0.87248819  0.62221553  0.28655653     0.06570
C1617       C  0.90200617  0.61486951  0.27003387    -0.02790
C1618       C  0.90250618  0.60283540  0.23415755    -0.02800
C1619       C  0.87364680  0.60045931  0.21403004     0.07130
C1620       C  0.84422671  0.60717833  0.23105828    -0.02990
Br1621     Br  0.80404879  0.60207301  0.20530260    -0.01540
Br1622     Br  0.80285529  0.62269430  0.29044420    -0.01610
Br1623     Br  0.94231990  0.58846868  0.21341408    -0.01570
Br1624     Br  0.94140333  0.62026954  0.29700876    -0.01560
C1625       C  0.78595987  0.97781357  0.12989225    -0.02680
C1626       C  0.78339074  0.51308826  0.12918261     0.07000
C1627       C  0.75171799  0.52654885  0.13114012    -0.02790
C1628       C  0.72409121  0.50562689  0.13280446    -0.02800
C1629       C  0.72655903  0.97040151  0.12974683     0.07130
C1630       C  0.75826389  0.95697771  0.12845299    -0.02990
Br1631     Br  0.76525133  0.90973812  0.12260033    -0.01540
Br1632     Br  0.82757651  0.95679618  0.13513283    -0.01610
Br1633     Br  0.68283762  0.52641190  0.14106721    -0.01570
Br1634     Br  0.74460414  0.57405268  0.12979719    -0.01560
C1635       C  0.90703565  0.94853936  0.97409859    -0.02680
C1636       C  0.88099013  0.94497161  0.94942808     0.07000
C1637       C  0.85790226  0.97035238  0.94731812    -0.02790
C1638       C  0.85885537  0.99704044  0.97212483    -0.02800
C1639       C  0.88267873  0.99807465  0.99994374     0.07130
C1640       C  0.90748933  0.97433826  0.99963625    -0.02990
Br1641     Br  0.94249635  0.97642809  0.03421111    -0.01540
Br1642     Br  0.94155345  0.91659233  0.97545903    -0.01610
Br1643     Br  0.82557256  0.53037771  0.96861833    -0.01570
Br1644     Br  0.82295132  0.96678545  0.91297340    -0.01560
C1645       C  0.90824129  0.70210415  0.03256100    -0.02680
C1646       C  0.87801477  0.69457795  0.04837510     0.07000
C1647       C  0.85076759  0.71266595  0.03643004    -0.02790
C1648       C  0.85283988  0.73336970  0.00584560    -0.02800
C1649       C  0.88235843  0.73794578  0.98818788     0.07130
C1650       C  0.91013364  0.72312812  0.00246204    -0.02990
Br1651     Br  0.95100974  0.73170552  0.98011850    -0.01540
Br1652     Br  0.94810229  0.68548241  0.05265536    -0.01610
Br1653     Br  0.81480160  0.75484395  0.98712519    -0.01570
Br1654     Br  0.81055661  0.71026899  0.06176937    -0.01560
C1655       C  0.72562143  0.59787556  0.01308935    -0.02680
C1656       C  0.71996682  0.62897820  0.99752462     0.07000
C1657       C  0.74548700  0.65042432  0.98966970    -0.02790
C1658       C  0.77700812  0.63992289  0.99544626    -0.02800
C1659       C  0.78262331  0.60990182  0.01332007     0.07130
C1660       C  0.75706799  0.58800649  0.02029506    -0.02990
Br1661     Br  0.76554952  0.54373583  0.03776149    -0.01540
Br1662     Br  0.69038937  0.56816043  0.02253798    -0.01610
Br1663     Br  0.81191258  0.66470401  0.97555398    -0.01570
Br1664     Br  0.73678347  0.69364845  0.96969663    -0.01560
loop_ 
_geom_bond_atom_site_label_1 
_geom_bond_atom_site_label_2 
_geom_bond_distance 
_geom_bond_site_symmetry_2 
_ccdc_geom_bond_type 
Fe1          O17   2.099       .  S
Fe1           O7   2.122       .  S
Fe1          O14   2.125       .  S
Fe1           O6   2.094       .  S
Fe1          O12   1.917       .  S
Fe2           O5   2.010       .  S
Fe2           O9   2.058       .  S
Fe2          O13   2.007       .  S
Fe2          O18   2.084       .  S
Fe2          O12   1.934       .  S
Fe3          O21   2.150       .  S
Fe3           O8   1.987       .  S
Fe3          O15   2.045       .  S
Fe3           O4   2.136       .  S
Fe3          O12   1.928       .  S
O4           C11   1.282       .  A
O5           C19   1.250       .  A
O6           C11   1.276       .  A
O7           C10   1.280       .  A
O8           C20   1.259       .  A
O9           C22   1.268       .  A
C10          O15   1.268       .  A
C10         C787   1.483       .  S
C11         C794   1.543       .  S
O13          C16   1.257       .  A
O14          C16   1.285       .  A
C16        C1639   1.490   1_544  S
O17          C22   1.276       .  A
O18          C20   1.273       .  A
C19          O21   1.281       .  A
C19         C814   1.507       .  S
C20         C827   1.450       .  S
C22         C774   1.489       .  S
Fe23         O39   2.099       .  S
Fe23         O29   2.067       .  S
Fe23         O36   2.092       .  S
Fe23         O28   2.106       .  S
Fe23         O34   1.967       .  S
Fe24         O27   2.052       .  S
Fe24         O31   2.006       .  S
Fe24         O35   2.051       .  S
Fe24         O40   1.984       .  S
Fe24         O34   1.973       .  S
Fe25         O43   2.002       .  S
Fe25         O30   2.116       .  S
Fe25         O37   2.133       .  S
Fe25         O26   2.032       .  S
Fe25         O34   1.956       .  S
O26          C33   1.261       .  A
O27          C41   1.269       .  A
O28          C33   1.274       .  A
O29          C32   1.268       .  A
O30          C42   1.275       .  A
O31          C44   1.248       .  A
C32          O37   1.282       .  A
C32         C744   1.540       .  S
C33         C734   1.488       .  S
O35          C38   1.272       .  A
O36          C38   1.278       .  A
C38         C724   1.474       .  S
O39          C44   1.271       .  A
O40          C42   1.248       .  A
C41          O43   1.262       .  A
C41         C824   1.433       .  S
C42         C754   1.489       .  S
C44         C767   1.489       .  S
Fe45         O61   2.108       .  S
Fe45         O51   2.105       .  S
Fe45         O58   2.110       .  S
Fe45         O50   2.086       .  S
Fe45         O56   1.931       .  S
Fe46         O49   2.089       .  S
Fe46         O53   2.027       .  S
Fe46         O57   2.059       .  S
Fe46         O62   2.032       .  S
Fe46         O56   1.939       .  S
Fe47         O65   2.033       .  S
Fe47         O52   2.110       .  S
Fe47         O59   2.119       .  S
Fe47         O48   2.059       .  S
Fe47         O56   1.929       .  S
O48          C55   1.264       .  A
O49          C63   1.273       .  A
O50          C55   1.270       .  A
O51          C54   1.280       .  A
O52          C64   1.284       .  A
O53          C66   1.254       .  A
C54          O59   1.285       .  A
C54         C747   1.530       .  S
C55         C704   1.508       .  S
O57          C60   1.275       .  A
O58          C60   1.283       .  A
C60         C694   1.490       .  S
O61          C66   1.271       .  A
O62          C64   1.262       .  A
C63          O65   1.249       .  A
C63         C714   1.479       .  S
C64         C804   1.483       .  S
C66         C817   1.481       .  S
Fe67         O83   2.120       .  S
Fe67         O73   2.130       .  S
Fe67         O80   2.135       .  S
Fe67         O72   2.099       .  S
Fe67         O78   1.905       .  S
Fe68         O71   2.023       .  S
Fe68         O75   2.066       .  S
Fe68         O79   2.011       .  S
Fe68         O84   2.103       .  S
Fe68         O78   1.920       .  S
Fe69         O87   2.147       .  S
Fe69         O74   2.005       .  S
Fe69         O81   2.032       .  S
Fe69         O70   2.129       .  S
Fe69         O78   1.917       .  S
O70          C77   1.282       .  A
O71          C85   1.252       .  A
O72          C77   1.277       .  A
O73          C76   1.284       .  A
O74          C86   1.257       .  A
O75          C88   1.263       .  A
C76          O81   1.265       .  A
C76         C684   1.480       .  S
C77         C797   1.543       .  S
O79          C82   1.264       .  A
O80          C82   1.290       .  A
C82         C757   1.478       .  S
O83          C88   1.275       .  A
O84          C86   1.272       .  A
C85          O87   1.284       .  A
C85         C764   1.494       .  S
C86         C717   1.457       .  S
C88         C674   1.520       .  S
Fe89        O105   2.093       .  S
Fe89         O95   2.120       .  S
Fe89        O102   2.129       .  S
Fe89         O94   2.106       .  S
Fe89        O100   1.914       .  S
Fe90         O93   2.034       .  S
Fe90         O97   2.078       .  S
Fe90        O101   2.023       .  S
Fe90        O106   2.071       .  S
Fe90        O100   1.927       .  S
Fe91        O109   2.139       .  S
Fe91         O96   1.987       .  S
Fe91        O103   2.038       .  S
Fe91         O92   2.131       .  S
Fe91        O100   1.919       .  S
O92          C99   1.281       .  A
O93         C107   1.260       .  A
O94          C99   1.278       .  A
O95          C98   1.281       .  A
O96         C108   1.255       .  A
O97         C110   1.268       .  A
C98         O103   1.266       .  A
C98         C784   1.480       .  S
C99         C634   1.554       .  S
O101        C104   1.257       .  A
O102        C104   1.282       .  A
C104        C654   1.512       .  S
O105        C110   1.275       .  A
O106        C108   1.269       .  A
C107        O109   1.281       .  A
C107        C647   1.493       .  S
C108        C664   1.465       .  S
C110        C624   1.504       .  S
Fe111       O127   2.085       .  S
Fe111       O117   2.137       .  S
Fe111       O124   2.154       .  S
Fe111       O116   2.095       .  S
Fe111       O122   1.932       .  S
Fe112       O115   2.029       .  S
Fe112       O119   2.030       .  S
Fe112       O123   2.002       .  S
Fe112       O128   2.020       .  S
Fe112       O122   1.943       .  S
Fe113       O131   2.040       .  S
Fe113       O118   2.114       .  S
Fe113       O125   2.097       .  S
Fe113       O114   2.054       .  S
Fe113       O122   1.922       .  S
O114        C121   1.269       .  A
O115        C129   1.269       .  A
O116        C121   1.276       .  A
O117        C120   1.285       .  A
O118        C130   1.274       .  A
O119        C132   1.247       .  A
C120        O125   1.276       .  A
C120        C594   1.548       .  S
C121        C737   1.481       .  S
O123        C126   1.265       .  A
O124        C126   1.293       .  A
C126        C587   1.496       .  S
O127        C132   1.267       .  A
O128        C130   1.252       .  A
C129        O131   1.274       .  A
C129        C667   1.433       .  S
C130        C614   1.474       .  S
C132       C1436   1.494   1_545  S
Fe133       O149   2.077       .  S
Fe133       O139   2.118       .  S
Fe133       O146   2.134       .  S
Fe133       O138   2.084       .  S
Fe133       O144   1.932       .  S
Fe134       O137   2.023       .  S
Fe134       O141   2.071       .  S
Fe134       O145   2.008       .  S
Fe134       O150   2.069       .  S
Fe134       O144   1.936       .  S
Fe135       O153   2.148       .  S
Fe135       O140   1.973       .  S
Fe135       O147   2.034       .  S
Fe135       O136   2.146       .  S
Fe135       O144   1.937       .  S
O136        C143   1.286       .  A
O137        C151   1.253       .  A
O138        C143   1.277       .  A
O139        C142   1.279       .  A
O140        C152   1.252       .  A
O141        C154   1.273       .  A
C142        O147   1.263       .  A
C142        C687   1.478       .  S
C143        C637   1.534       .  S
O145        C148   1.254       .  A
O146        C148   1.280       .  A
C148        C617   1.479       .  S
O149        C154   1.274       .  A
O150        C152   1.268       .  A
C151        O153   1.283       .  A
C151        C607   1.492       .  S
C152        C574   1.430       .  S
C154        C567   1.477       .  S
Fe155       O171   2.143       .  S
Fe155       O161   2.101       .  S
Fe155       O168   2.105       .  S
Fe155       O160   2.112       .  S
Fe155       O166   1.927       .  S
Fe156       O159   2.080       .  S
Fe156       O163   2.009       .  S
Fe156       O167   2.077       .  S
Fe156       O172   1.977       .  S
Fe156       O166   1.944       .  S
Fe157       O175   1.996       .  S
Fe157       O162   2.148       .  S
Fe157       O169   2.135       .  S
Fe157       O158   2.057       .  S
Fe157       O166   1.945       .  S
O158        C165   1.271       .  A
O159        C173   1.270       .  A
O160        C165   1.280       .  A
O161        C164   1.279       .  A
O162        C174   1.281       .  A
O163        C176   1.256       .  A
C164        O169   1.283       .  A
C164        C597   1.542       .  S
C165        C707   1.494       .  S
O167        C170   1.273       .  A
O168        C170   1.277       .  A
C170        C554   1.500       .  S
O171        C176   1.284       .  A
O172        C174   1.245       .  A
C173        O175   1.260       .  A
C173        C577   1.431       .  S
C174        C657   1.494       .  S
C176        C644   1.486       .  S
Fe177       O193   2.115       .  S
Fe177       O183   2.124       .  S
Fe177       O190   2.135       .  S
Fe177       O182   2.107       .  S
Fe177       O188   1.908       .  S
Fe178       O181   2.030       .  S
Fe178       O185   2.058       .  S
Fe178       O189   1.996       .  S
Fe178       O194   2.068       .  S
Fe178       O188   1.932       .  S
Fe179       O197   2.128       .  S
Fe179       O184   1.992       .  S
Fe179       O191   2.033       .  S
Fe179       O180   2.116       .  S
Fe179       O188   1.922       .  S
O180        C187   1.277       .  A
O181        C195   1.259       .  A
O182        C187   1.277       .  A
O183        C186   1.283       .  A
O184        C196   1.259       .  A
O185        C198   1.259       .  A
C186        O191   1.266       .  A
C186        C504   1.478       .  S
C187        C514   1.550       .  S
O189        C192   1.257       .  A
O190        C192   1.288       .  A
C192        C537   1.492       .  S
O193        C198   1.276       .  A
O194        C196   1.270       .  A
C195        O197   1.278       .  A
C195        C527   1.489       .  S
C196        C544   1.451       .  S
C198        C777   1.508       .  S
Fe199       O215   2.105       .  S
Fe199       O205   2.085       .  S
Fe199       O212   2.100       .  S
Fe199       O204   2.095       .  S
Fe199       O210   1.968       .  S
Fe200       O203   2.043       .  S
Fe200       O207   2.006       .  S
Fe200       O211   2.059       .  S
Fe200       O216   1.978       .  S
Fe200       O210   1.964       .  S
Fe201       O219   1.995       .  S
Fe201       O206   2.123       .  S
Fe201       O213   2.143       .  S
Fe201       O202   2.016       .  S
Fe201       O210   1.950       .  S
O202        C209   1.256       .  A
O203        C217   1.267       .  A
O204        C209   1.271       .  A
O205        C208   1.276       .  A
O206        C218   1.277       .  A
O207        C220   1.248       .  A
C208        O213   1.287       .  A
C208        C474   1.528       .  S
C209        C464   1.477       .  S
O211        C214   1.274       .  A
O212        C214   1.280       .  A
C214        C727   1.488       .  S
O215        C220   1.272       .  A
O216        C218   1.244       .  A
C217        O219   1.259       .  A
C217        C547   1.430       .  S
C218        C494   1.492       .  S
C220       C1316   1.487   1_545  S
Fe221       O237   2.097       .  S
Fe221       O227   2.094       .  S
Fe221       O234   2.116       .  S
Fe221       O226   2.091       .  S
Fe221       O232   1.965       .  S
Fe222       O225   2.058       .  S
Fe222       O229   2.009       .  S
Fe222       O233   2.055       .  S
Fe222       O238   1.991       .  S
Fe222       O232   1.970       .  S
Fe223       O241   2.027       .  S
Fe223       O228   2.118       .  S
Fe223       O235   2.116       .  S
Fe223       O224   2.047       .  S
Fe223       O232   1.955       .  S
O224        C231   1.262       .  A
O225        C239   1.271       .  A
O226        C231   1.270       .  A
O227        C230   1.279       .  A
O228        C240   1.277       .  A
O229        C242   1.249       .  A
C230        O235   1.283       .  A
C230        C477   1.521       .  S
C231        C444   1.481       .  S
O233        C236   1.274       .  A
O234        C236   1.285       .  A
C236        C697   1.491       .  S
O237        C242   1.268       .  A
O238        C240   1.248       .  A
C239        O241   1.266       .  A
C239        C454   1.459       .  S
C240        C534   1.491       .  S
C242        C524   1.478       .  S
Fe243       O259   2.115       .  S
Fe243       O249   2.134       .  S
Fe243       O256   2.142       .  S
Fe243       O248   2.086       .  S
Fe243       O254   1.902       .  S
Fe244       O247   2.012       .  S
Fe244       O251   2.061       .  S
Fe244       O255   2.003       .  S
Fe244       O260   2.123       .  S
Fe244       O254   1.905       .  S
Fe245       O263   2.138       .  S
Fe245       O250   1.970       .  S
Fe245       O257   2.026       .  S
Fe245       O246   2.150       .  S
Fe245       O254   1.909       .  S
O246        C253   1.290       .  A
O247        C261   1.238       .  A
O248        C253   1.280       .  A
O249        C252   1.281       .  A
O250        C262   1.256       .  A
O251        C264   1.266       .  A
C252        O257   1.257       .  A
C252        C434   1.496       .  S
C253        C517   1.531       .  S
O255        C258   1.259       .  A
O256        C258   1.291       .  A
C258        C497   1.497   1_554  S
O259        C264   1.276       .  A
O260        C262   1.281       .  A
C261        O263   1.277       .  A
C261        C487   1.488       .  S
C262        C457   1.442       .  S
C264        C677   1.515       .  S
Fe265       O281   2.094       .  S
Fe265       O271   2.125       .  S
Fe265       O278   2.138       .  S
Fe265       O270   2.095       .  S
Fe265       O276   1.917       .  S
Fe266       O269   2.031       .  S
Fe266       O273   2.062       .  S
Fe266       O277   2.037       .  S
Fe266       O282   2.071       .  S
Fe266       O276   1.940       .  S
Fe267       O285   2.163       .  S
Fe267       O272   1.993       .  S
Fe267       O279   2.038       .  S
Fe267       O268   2.135       .  S
Fe267       O276   1.912       .  S
O268        C275   1.281       .  A
O269        C283   1.263       .  A
O270        C275   1.276       .  A
O271        C274   1.282       .  A
O272        C284   1.252       .  A
O273        C286   1.268       .  A
C274        O279   1.268       .  A
C274        C507   1.482       .  S
C275        C397   1.545       .  S
O277        C280   1.266       .  A
O278        C280   1.286       .  A
C280       C1246   1.488   1_545  S
O281        C286   1.274       .  A
O282        C284   1.266       .  A
C283        O285   1.287       .  A
C283        C404   1.521       .  S
C284        C427   1.446       .  S
C286        C627   1.486       .  S
Fe287       O303   2.089       .  S
Fe287       O293   2.101       .  S
Fe287       O300   2.109       .  S
Fe287       O292   2.078       .  S
Fe287       O298   1.958       .  S
Fe288       O291   2.031       .  S
Fe288       O295   2.015       .  S
Fe288       O299   2.029       .  S
Fe288       O304   2.034       .  S
Fe288       O298   1.952       .  S
Fe289       O307   2.021       .  S
Fe289       O294   2.113       .  S
Fe289       O301   2.143       .  S
Fe289       O290   2.042       .  S
Fe289       O298   1.946       .  S
O290        C297   1.264       .  A
O291        C305   1.260       .  A
O292        C297   1.265       .  A
O293        C296   1.280       .  A
O294        C306   1.282       .  A
O295        C308   1.251       .  A
C296        O301   1.289       .  A
C296        C364   1.547       .  S
C297        C467   1.483       .  S
O299        C302   1.271       .  A
O300        C302   1.285       .  A
C302        C584   1.472       .  S
O303        C308   1.266       .  A
O304        C306   1.260       .  A
C305        O307   1.251       .  A
C305        C424   1.454       .  S
C306        C387   1.483       .  S
C308        C374   1.474       .  S
Fe309       O325   2.129       .  S
Fe309       O315   2.090       .  S
Fe309       O322   2.067       .  S
Fe309       O314   2.132       .  S
Fe309       O320   1.923       .  S
Fe310       O313   2.105       .  S
Fe310       O317   2.041       .  S
Fe310       O321   2.082       .  S
Fe310       O326   2.044       .  S
Fe310       O320   1.933       .  S
Fe311       O329   1.990       .  S
Fe311       O316   2.177       .  S
Fe311       O323   2.129       .  S
Fe311       O312   2.040       .  S
Fe311       O320   1.916       .  S
O312        C319   1.272       .  A
O313        C327   1.279       .  A
O314        C319   1.287       .  A
O315        C318   1.270       .  A
O316        C328   1.286       .  A
O317        C330   1.264       .  A
C318        O323   1.278       .  A
C318        C367   1.540       .  S
C319        C447   1.488       .  S
O321        C324   1.276       .  A
O322        C324   1.272       .  A
C324        C557   1.476       .  S
O325        C330   1.281       .  A
O326        C328   1.260       .  A
C327        O329   1.250       .  A
C327        C354   1.448       .  S
C328        C417   1.518       .  S
C330        C407   1.493       .  S
Fe331       O347   2.114       .  S
Fe331       O337   2.120       .  S
Fe331       O344   2.143       .  S
Fe331       O336   2.112       .  S
Fe331       O342   1.903       .  S
Fe332       O335   1.982       .  S
Fe332       O339   2.075       .  S
Fe332       O343   2.017       .  S
Fe332       O348   2.094       .  S
Fe332       O342   1.923       .  S
Fe333       O351   2.160       .  S
Fe333       O338   2.000       .  S
Fe333       O345   2.046       .  S
Fe333       O334   2.115       .  S
Fe333       O342   1.934       .  S
O334        C341   1.276       .  A
O335        C349   1.237       .  A
O336        C341   1.278       .  A
O337        C340   1.286       .  A
O338        C350   1.256       .  A
O339        C352   1.271       .  A
C340        O345   1.272       .  A
C340        C437   1.486       .  S
C341        C394   1.543       .  S
O343        C346   1.262       .  A
O344        C346   1.287       .  A
C346        C384   1.485       .  S
O347        C352   1.277       .  A
O348        C350   1.276       .  A
C349        O351   1.276       .  A
C349        C377   1.507       .  S
C350        C357   1.445       .  S
C352        C564   1.505       .  S
C353        C354   1.423       .  A
C353        C358   1.392       .  A
C353       Br360   1.943       .  S
C354        C355   1.399       .  A
C355        C356   1.393       .  A
C355       Br362   1.935       .  S
C356        C357   1.418       .  A
C356       Br361   1.936       .  S
C357        C358   1.398       .  A
C358       Br359   1.937       .  S
C363        C364   1.431       .  A
C363        C368   1.428       .  A
C363       Br370   1.941       .  S
C364        C365   1.424       .  A
C365        C366   1.426       .  A
C365       Br372   1.922       .  S
C366        C367   1.424       .  A
C366       Br371   1.937       .  S
C367        C368   1.425       .  A
C368       Br369   1.930       .  S
C373        C374   1.410       .  A
C373        C378   1.409       .  A
C373       Br380   1.927       .  S
C374        C375   1.395       .  A
C375        C376   1.408       .  A
C375       Br382   1.938       .  S
C376        C377   1.442       .  A
C376       Br381   1.940       .  S
C377        C378   1.414       .  A
C378       Br379   1.929       .  S
C383        C384   1.414       .  A
C383       C1220   1.411       .  A
C383       Br390   1.933       .  S
C384       C1217   1.407       .  A
C385        C386   1.414       .  A
C385       C1216   1.407   1_545  A
C385      Br1224   1.928   1_545  S
C386        C387   1.416       .  A
C386       Br391   1.924       .  S
C387        C388   1.411       .  A
C388       C1215   1.411   1_545  A
C388       Br389   1.929       .  S
Br392      C1217   1.928       .  S
C393        C398   1.430       .  A
C393       C1226   1.423   1_545  A
C393       Br400   1.938       .  S
C394        C395   1.430       .  A
C394       C1225   1.423       .  A
C395        C396   1.428       .  A
C395       Br402   1.933       .  S
C396       C1229   1.423       .  A
C396       Br401   1.939       .  S
C397        C398   1.428       .  A
C397       C1228   1.423   1_545  A
C398       Br399   1.926       .  S
C403        C404   1.422       .  A
C403        C408   1.414       .  A
C403       Br410   1.918       .  S
C404        C405   1.429       .  A
C405        C406   1.419       .  A
C405       Br412   1.932       .  S
C406        C407   1.406       .  A
C406       Br411   1.926       .  S
C407        C408   1.408       .  A
C408       Br409   1.936       .  S
C413        C414   1.405       .  A
C413        C418   1.416       .  A
C413       Br420   1.932       .  S
C414       C1112   1.488       .  S
C414        C415   1.407       .  A
C415        C416   1.414       .  A
C415      Br1254   1.928       .  S
C416        C417   1.418       .  A
C416       Br421   1.910       .  S
C417        C418   1.419       .  A
C418       Br419   1.901       .  S
Br422      C1247   1.928   1_545  S
C423        C424   1.424       .  A
C423        C428   1.390       .  A
C423       Br430   1.936       .  S
C424        C425   1.409       .  A
C425        C426   1.389       .  A
C425       Br432   1.943       .  S
C426        C427   1.414       .  A
C426       Br431   1.941       .  S
C427        C428   1.399       .  A
C428       Br429   1.943       .  S
C433        C434   1.413       .  A
C433        C438   1.412       .  A
C433       Br440   1.933       .  S
C434        C435   1.427       .  A
C435        C436   1.407       .  A
C435       Br442   1.942       .  S
C436        C437   1.407       .  A
C436       Br441   1.938       .  S
C437        C438   1.413       .  A
C438       Br439   1.919       .  S
C443        C444   1.409       .  A
C443        C448   1.406       .  A
C443       Br450   1.934       .  S
C444        C445   1.409       .  A
C445        C446   1.416       .  A
C445       Br452   1.926       .  S
C446        C447   1.415       .  A
C446       Br451   1.928       .  S
C447        C448   1.415       .  A
C448       Br449   1.936       .  S
C453        C454   1.402   1_554  A
C453        C458   1.400       .  A
C453       Br460   1.923       .  S
C454        C455   1.411       .  A
C455        C456   1.393   1_556  A
C455       Br462   1.929       .  S
C456        C457   1.403       .  A
C456       Br461   1.932       .  S
C457        C458   1.410       .  A
C458       Br459   1.925       .  S
C463        C464   1.411       .  A
C463        C468   1.395       .  A
C463       Br470   1.929       .  S
C464        C465   1.411       .  A
C465        C466   1.416       .  A
C465       Br472   1.928       .  S
C466        C467   1.415       .  A
C466       Br471   1.922       .  S
C467        C468   1.409       .  A
C468       Br469   1.933       .  S
C473        C478   1.421       .  A
C473       C1306   1.423       .  A
C473       Br480   1.933       .  S
C474        C475   1.419       .  A
C474       C1305   1.423   1_545  A
C475       C1308   1.424   1_545  A
C475       Br482   1.915       .  S
C476        C477   1.418       .  A
C476       C1307   1.424       .  A
C476       Br481   1.934       .  S
C477        C478   1.419       .  A
C478       Br479   1.931       .  S
C483       C1316   1.423   1_554  A
C483       C1320   1.402       .  A
C483       Br490   1.918   1_565  S
C484       C1052   1.487       .  S
C484        C485   1.401       .  A
C484       C1315   1.423   1_556  A
C485        C486   1.410   1_556  A
C485       Br492   1.935       .  S
C486        C487   1.434       .  A
C486       Br491   1.935   1_554  S
C487        C488   1.399       .  A
C488       C1315   1.402       .  A
C488       Br489   1.938       .  S
C493        C494   1.404       .  A
C493        C498   1.412       .  A
C493       Br500   1.930       .  S
C494        C495   1.429       .  A
C495        C496   1.403   1_556  A
C495       Br502   1.941       .  S
C496        C497   1.408   1_554  A
C496       Br501   1.941       .  S
C497        C498   1.430       .  A
C498       Br499   1.933       .  S
C503        C504   1.409       .  A
C503        C508   1.402       .  A
C503       Br510   1.930       .  S
C504        C505   1.410       .  A
C505        C506   1.415       .  A
C505       Br512   1.926       .  S
C506        C507   1.412       .  A
C506       Br511   1.923       .  S
C507        C508   1.411       .  A
C508       Br509   1.932       .  S
C513        C514   1.436       .  A
C513        C518   1.426       .  A
C513       Br520   1.935       .  S
C514        C515   1.433       .  A
C515        C516   1.430       .  A
C515       Br522   1.938       .  S
C516        C517   1.420       .  A
C516       Br521   1.931       .  S
C517        C518   1.415       .  A
C518       Br519   1.937       .  S
C523        C524   1.411   1_554  A
C523       C1360   1.409       .  A
C523       Br530   1.929       .  S
C524       C1357   1.411       .  A
C525        C526   1.412   1_556  A
C525       C1356   1.411   1_545  A
C525      Br1364   1.933   1_545  S
C526        C527   1.411       .  A
C526       Br531   1.927       .  S
C527        C528   1.412       .  A
C528       C1355   1.409       .  A
C528       Br529   1.930       .  S
Br532      C1357   1.933       .  S
C533        C534   1.427       .  A
C533        C538   1.404   1_556  A
C533       Br540   1.939       .  S
C534        C535   1.403       .  A
C535        C536   1.412       .  A
C535       Br542   1.933       .  S
C536        C537   1.431   1_556  A
C536       Br541   1.936       .  S
C537        C538   1.408       .  A
C538       Br539   1.940       .  S
C543        C544   1.398   1_556  A
C543        C548   1.392       .  A
C543       Br550   1.930       .  S
C544        C545   1.409       .  A
C545        C546   1.392       .  A
C545       Br552   1.933       .  S
C546        C547   1.404   1_554  A
C546       Br551   1.931       .  S
C547        C548   1.405       .  A
C548       Br549   1.921       .  S
C553        C554   1.420       .  A
C553        C558   1.403   1_655  A
C553       Br560   1.903       .  S
C554        C555   1.409   1_655  A
C555        C556   1.416       .  A
C555       Br562   1.922       .  S
C556        C557   1.410       .  A
C556       Br561   1.921       .  S
C557        C558   1.393       .  A
C558       Br559   1.929       .  S
C563        C564   1.423       .  A
C563        C568   1.402       .  A
C563       Br570   1.903       .  S
C564        C565   1.410       .  A
C565        C566   1.417       .  A
C565       Br572   1.925       .  S
C566        C567   1.413       .  A
C566       Br571   1.918       .  S
C567        C568   1.392       .  A
C568       Br569   1.933       .  S
C573        C574   1.410       .  A
C573        C578   1.391       .  A
C573       Br580   1.926       .  S
C574        C575   1.393       .  A
C575        C576   1.387       .  A
C575       Br582   1.924       .  S
C576        C577   1.407       .  A
C576       Br581   1.919       .  S
C577        C578   1.396       .  A
C578       Br579   1.925       .  S
C583        C584   1.412       .  A
C583        C588   1.413       .  A
C583       Br590   1.926       .  S
C584        C585   1.400       .  A
C585        C586   1.401       .  A
C585       Br592   1.936       .  S
C586        C587   1.428       .  A
C586       Br591   1.942       .  S
C587        C588   1.415       .  A
C588       Br589   1.930       .  S
C593        C594   1.430       .  A
C593        C598   1.428       .  A
C593       Br600   1.937       .  S
C594       C1427   1.425   1_545  A
C595        C596   1.430       .  A
C595       C1426   1.425       .  A
C595       Br602   1.935       .  S
C596        C597   1.428       .  A
C596       Br601   1.934       .  S
C597       C1430   1.423       .  A
C598       C1429   1.423   1_545  A
C598       Br599   1.936       .  S
C603        C604   1.399       .  A
C603        C608   1.384       .  A
C603       Br610   1.928       .  S
C604        C964   1.494       .  S
C604        C605   1.428       .  A
C605        C606   1.422       .  A
C605      Br1444   1.932       .  S
C606        C607   1.411       .  A
C606       Br611   1.921       .  S
C607        C608   1.416       .  A
C608       Br609   1.912       .  S
Br612      C1437   1.932   1_545  S
C613        C614   1.412       .  A
C613        C618   1.415       .  A
C613       Br620   1.928       .  S
C614        C615   1.409       .  A
C615        C616   1.408       .  A
C615       Br622   1.927       .  S
C616        C617   1.406       .  A
C616       Br621   1.925       .  S
C617        C618   1.412       .  A
C618       Br619   1.926       .  S
C623        C624   1.426       .  A
C623        C628   1.407   1_655  A
C623       Br630   1.934       .  S
C624        C625   1.418       .  A
C625        C626   1.416   1_655  A
C625       Br632   1.932       .  S
C626        C627   1.413       .  A
C626       Br631   1.929       .  S
C627        C628   1.402       .  A
C628       Br629   1.931       .  S
C633        C634   1.434       .  A
C633        C638   1.428       .  A
C633       Br640   1.931       .  S
C634        C635   1.433       .  A
C635        C636   1.430       .  A
C635       Br642   1.935       .  S
C636        C637   1.420       .  A
C636       Br641   1.933       .  S
C637        C638   1.417       .  A
C638       Br639   1.938       .  S
C643        C648   1.411       .  A
C643       C1476   1.407   1_545  A
C643       Br650   1.923       .  S
C644        C645   1.414       .  A
C644       C1475   1.407       .  A
C645       C1478   1.416       .  A
C645       Br652   1.926       .  S
C646        C647   1.411       .  A
C646       C1477   1.416   1_545  A
C646       Br651   1.927       .  S
C647        C648   1.408       .  A
C648       Br649   1.919       .  S
C653        C654   1.417       .  A
C653        C658   1.409       .  A
C653       Br660   1.943       .  S
C654        C655   1.437       .  A
C655        C656   1.416       .  A
C655       Br662   1.939       .  S
C656        C657   1.402       .  A
C656       Br661   1.934       .  S
C657        C658   1.424       .  A
C658       Br659   1.941       .  S
C663        C664   1.418       .  A
C663        C668   1.392       .  A
C663       Br670   1.930       .  S
C664        C665   1.409       .  A
C665        C666   1.393       .  A
C665       Br672   1.934       .  S
C666        C667   1.399       .  A
C666       Br671   1.919       .  S
C667        C668   1.397       .  A
C668       Br669   1.935       .  S
C673        C674   1.417       .  A
C673        C678   1.406       .  A
C673       Br680   1.936       .  S
C674        C675   1.418       .  A
C675        C676   1.427       .  A
C675       Br682   1.929       .  S
C676        C677   1.425       .  A
C676       Br681   1.931       .  S
C677        C678   1.418       .  A
C678       Br679   1.938       .  S
C683        C684   1.410       .  A
C683        C688   1.404       .  A
C683       Br690   1.931       .  S
C684        C685   1.411       .  A
C685        C686   1.414       .  A
C685       Br692   1.920       .  S
C686        C687   1.409       .  A
C686       Br691   1.928       .  S
C687        C688   1.411       .  A
C688       Br689   1.933       .  S
C693        C694   1.404   1_455  A
C693        C698   1.409       .  A
C693       Br700   1.926       .  S
C694        C695   1.417       .  A
C695        C696   1.413   1_655  A
C695       Br702   1.924       .  S
C696        C697   1.405       .  A
C696       Br701   1.925       .  S
C697        C698   1.415       .  A
C698       Br699   1.921       .  S
C703        C704   1.421       .  A
C703        C708   1.413       .  A
C703       Br710   1.937       .  S
C704        C705   1.427       .  A
C705        C706   1.412       .  A
C705       Br712   1.939       .  S
C706        C707   1.410       .  A
C706       Br711   1.937       .  S
C707        C708   1.411       .  A
C708       Br709   1.921       .  S
C713        C714   1.412   1_554  A
C713        C718   1.400       .  A
C713       Br720   1.935       .  S
C714        C715   1.436       .  A
C715        C716   1.397       .  A
C715       Br722   1.943       .  S
C716        C717   1.394   1_556  A
C716       Br721   1.940       .  S
C717        C718   1.411       .  A
C718       Br719   1.936       .  S
C723        C724   1.398       .  A
C723        C728   1.404       .  A
C723       Br730   1.927       .  S
C724        C725   1.413       .  A
C725        C726   1.412       .  A
C725       Br732   1.928       .  S
C726        C727   1.407       .  A
C726       Br731   1.925       .  S
C727        C728   1.416       .  A
C728       Br729   1.918       .  S
C733        C734   1.417       .  A
C733        C738   1.401       .  A
C733       Br740   1.939       .  S
C734        C735   1.415       .  A
C735        C736   1.418       .  A
C735       Br742   1.928       .  S
C736        C737   1.411       .  A
C736       Br741   1.925       .  S
C737        C738   1.408       .  A
C738       Br739   1.933       .  S
C743        C744   1.429       .  A
C743        C748   1.427       .  A
C743       Br750   1.938       .  S
C744        C745   1.434       .  A
C745        C746   1.421       .  A
C745       Br752   1.940       .  S
C746        C747   1.414       .  A
C746       Br751   1.931       .  S
C747        C748   1.425       .  A
C748       Br749   1.936       .  S
C753        C754   1.412       .  A
C753       C1590   1.412   1_545  A
C753       Br760   1.932       .  S
C754        C755   1.426       .  A
C755        C756   1.404       .  A
C755       Br762   1.933       .  S
C756       C1589   1.403   1_546  A
C756       Br761   1.938   1_546  S
C757        C758   1.417   1_554  A
C757       C1588   1.403   1_554  A
C758       C1585   1.412       .  A
C758       Br759   1.933       .  S
C763        C764   1.430       .  A
C763        C768   1.407   1_554  A
C763       Br770   1.930   1_554  S
C764        C765   1.405       .  A
C765        C766   1.409       .  A
C765       Br772   1.936       .  S
C766        C767   1.426   1_554  A
C766       Br771   1.929       .  S
C767        C768   1.402       .  A
C768       Br769   1.938       .  S
C773        C774   1.414       .  A
C773        C778   1.418   1_655  A
C773       Br780   1.929       .  S
C774        C775   1.404   1_655  A
C775        C776   1.408       .  A
C775       Br782   1.933   1_455  S
C776        C777   1.430       .  A
C776       Br781   1.941       .  S
C777        C778   1.418       .  A
C778       Br779   1.931       .  S
C783        C784   1.408       .  A
C783        C788   1.401       .  A
C783       Br790   1.925       .  S
C784        C785   1.410       .  A
C785        C786   1.416       .  A
C785       Br792   1.927       .  S
C786        C787   1.413       .  A
C786       Br791   1.923       .  S
C787        C788   1.410       .  A
C788       Br789   1.931       .  S
C793        C798   1.428       .  A
C793       C1626   1.425       .  A
C793       Br800   1.937       .  S
C794        C795   1.428       .  A
C794       C1625   1.425   1_545  A
C795        C796   1.429       .  A
C795       Br802   1.937       .  S
C796       C1629   1.426   1_545  A
C796       Br801   1.937       .  S
C797        C798   1.428       .  A
C797       C1628   1.426       .  A
C798       Br799   1.936       .  S
C803        C804   1.421       .  A
C803        C808   1.403       .  A
C803       Br810   1.929       .  S
C804        C805   1.405       .  A
C805        C806   1.413       .  A
C805       Br812   1.932       .  S
C806        C807   1.427       .  A
C806      Br1643   1.933       .  S
C807        C848   1.490   1_556  S
C807        C808   1.407       .  A
C808       Br809   1.936   1_556  S
Br811      C1638   1.933   1_545  S
C813        C814   1.428       .  A
C813        C818   1.410       .  A
C813       Br820   1.935       .  S
C814        C815   1.417       .  A
C815        C816   1.417       .  A
C815       Br822   1.932       .  S
C816        C817   1.412   1_554  A
C816       Br821   1.930   1_554  S
C817        C818   1.402   1_556  A
C818       Br819   1.934   1_554  S
C823        C824   1.402   1_554  A
C823        C828   1.393       .  A
C823       Br830   1.931       .  S
C824        C825   1.404       .  A
C825        C826   1.394       .  A
C825       Br832   1.929       .  S
C826        C827   1.401   1_556  A
C826       Br831   1.921       .  S
C827        C828   1.410       .  A
C828       Br829   1.932       .  S
Fe833       O849   2.099       .  S
Fe833       O839   2.122       .  S
Fe833       O846   2.125       .  S
Fe833       O838   2.094       .  S
Fe833       O844   1.917       .  S
Fe834       O837   2.010       .  S
Fe834       O841   2.058       .  S
Fe834       O845   2.007       .  S
Fe834       O850   2.084       .  S
Fe834       O844   1.934       .  S
Fe835       O853   2.150       .  S
Fe835       O840   1.987       .  S
Fe835       O847   2.045       .  S
Fe835       O836   2.136       .  S
Fe835       O844   1.928       .  S
O836        C843   1.282       .  A
O837        C851   1.250       .  A
O838        C843   1.276       .  A
O839        C842   1.280       .  A
O840        C852   1.259       .  A
O841        C854   1.268       .  A
C842        O847   1.268       .  A
C842       C1619   1.483       .  S
C843       C1626   1.543       .  S
O845        C848   1.257       .  A
O846        C848   1.285       .  A
O849        C854   1.276       .  A
O850        C852   1.273       .  A
C851        O853   1.281       .  A
C851       C1646   1.507       .  S
C852       C1659   1.450       .  S
C854       C1606   1.489       .  S
Fe855       O871   2.099       .  S
Fe855       O861   2.067       .  S
Fe855       O868   2.092       .  S
Fe855       O860   2.106       .  S
Fe855       O866   1.967       .  S
Fe856       O859   2.052       .  S
Fe856       O863   2.006       .  S
Fe856       O867   2.051       .  S
Fe856       O872   1.984       .  S
Fe856       O866   1.973       .  S
Fe857       O875   2.002       .  S
Fe857       O862   2.116       .  S
Fe857       O869   2.133       .  S
Fe857       O858   2.032       .  S
Fe857       O866   1.956       .  S
O858        C865   1.261       .  A
O859        C873   1.269       .  A
O860        C865   1.274       .  A
O861        C864   1.268       .  A
O862        C874   1.275       .  A
O863        C876   1.248       .  A
C864        O869   1.282       .  A
C864       C1576   1.540       .  S
C865       C1566   1.488       .  S
O867        C870   1.272       .  A
O868        C870   1.278       .  A
C870       C1556   1.474       .  S
O871        C876   1.271       .  A
O872        C874   1.248       .  A
C873        O875   1.262       .  A
C873       C1656   1.433       .  S
C874       C1586   1.489       .  S
C876       C1599   1.489       .  S
Fe877       O893   2.108       .  S
Fe877       O883   2.105       .  S
Fe877       O890   2.110       .  S
Fe877       O882   2.086       .  S
Fe877       O888   1.931       .  S
Fe878       O881   2.089       .  S
Fe878       O885   2.027       .  S
Fe878       O889   2.059       .  S
Fe878       O894   2.032       .  S
Fe878       O888   1.939       .  S
Fe879       O897   2.033       .  S
Fe879       O884   2.110       .  S
Fe879       O891   2.119       .  S
Fe879       O880   2.059       .  S
Fe879       O888   1.929       .  S
O880        C887   1.264       .  A
O881        C895   1.273       .  A
O882        C887   1.270       .  A
O883        C886   1.280       .  A
O884        C896   1.284       .  A
O885        C898   1.254       .  A
C886        O891   1.285       .  A
C886       C1579   1.530       .  S
C887       C1536   1.508       .  S
O889        C892   1.275       .  A
O890        C892   1.283       .  A
C892       C1526   1.490       .  S
O893        C898   1.271       .  A
O894        C896   1.262       .  A
C895        O897   1.249       .  A
C895       C1546   1.479       .  S
C896       C1636   1.483       .  S
C898       C1649   1.481       .  S
Fe899       O915   2.120       .  S
Fe899       O905   2.130       .  S
Fe899       O912   2.135       .  S
Fe899       O904   2.099       .  S
Fe899       O910   1.905       .  S
Fe900       O903   2.023       .  S
Fe900       O907   2.066       .  S
Fe900       O911   2.011       .  S
Fe900       O916   2.103       .  S
Fe900       O910   1.920       .  S
Fe901       O919   2.147       .  S
Fe901       O906   2.005       .  S
Fe901       O913   2.032       .  S
Fe901       O902   2.129       .  S
Fe901       O910   1.917       .  S
O902        C909   1.282       .  A
O903        C917   1.252       .  A
O904        C909   1.277       .  A
O905        C908   1.284       .  A
O906        C918   1.257       .  A
O907        C920   1.263       .  A
C908        O913   1.265       .  A
C908       C1516   1.480       .  S
C909       C1629   1.543       .  S
O911        C914   1.264       .  A
O912        C914   1.290       .  A
C914       C1589   1.478       .  S
O915        C920   1.275       .  A
O916        C918   1.272       .  A
C917        O919   1.284       .  A
C917       C1596   1.494       .  S
C918       C1549   1.457       .  S
C920       C1506   1.520       .  S
Fe921       O937   2.093       .  S
Fe921       O927   2.120       .  S
Fe921       O934   2.129       .  S
Fe921       O926   2.106       .  S
Fe921       O932   1.914       .  S
Fe922       O925   2.034       .  S
Fe922       O929   2.078       .  S
Fe922       O933   2.023       .  S
Fe922       O938   2.071       .  S
Fe922       O932   1.927       .  S
Fe923       O941   2.139       .  S
Fe923       O928   1.987       .  S
Fe923       O935   2.038       .  S
Fe923       O924   2.131       .  S
Fe923       O932   1.919       .  S
O924        C931   1.281       .  A
O925        C939   1.260       .  A
O926        C931   1.278       .  A
O927        C930   1.281       .  A
O928        C940   1.255       .  A
O929        C942   1.268       .  A
C930        O935   1.266       .  A
C930       C1616   1.480       .  S
C931       C1466   1.554       .  S
O933        C936   1.257       .  A
O934        C936   1.282       .  A
C936       C1486   1.512       .  S
O937        C942   1.275       .  A
O938        C940   1.269       .  A
C939        O941   1.281       .  A
C939       C1479   1.493       .  S
C940       C1496   1.465       .  S
C942       C1456   1.504       .  S
Fe943       O959   2.085       .  S
Fe943       O949   2.137       .  S
Fe943       O956   2.154       .  S
Fe943       O948   2.095       .  S
Fe943       O954   1.932       .  S
Fe944       O947   2.029       .  S
Fe944       O951   2.030       .  S
Fe944       O955   2.002       .  S
Fe944       O960   2.020       .  S
Fe944       O954   1.943       .  S
Fe945       O963   2.040       .  S
Fe945       O950   2.114       .  S
Fe945       O957   2.097       .  S
Fe945       O946   2.054       .  S
Fe945       O954   1.922       .  S
O946        C953   1.269       .  A
O947        C961   1.269       .  A
O948        C953   1.276       .  A
O949        C952   1.285       .  A
O950        C962   1.274       .  A
O951        C964   1.247       .  A
C952        O957   1.276       .  A
C952       C1426   1.548       .  S
C953       C1569   1.481       .  S
O955        C958   1.265       .  A
O956        C958   1.293       .  A
C958       C1419   1.496       .  S
O959        C964   1.267       .  A
O960        C962   1.252       .  A
C961        O963   1.274       .  A
C961       C1499   1.433       .  S
C962       C1446   1.474       .  S
Fe965       O981   2.077       .  S
Fe965       O971   2.118       .  S
Fe965       O978   2.134       .  S
Fe965       O970   2.084       .  S
Fe965       O976   1.932       .  S
Fe966       O969   2.023       .  S
Fe966       O973   2.071       .  S
Fe966       O977   2.008       .  S
Fe966       O982   2.069       .  S
Fe966       O976   1.936       .  S
Fe967       O985   2.148       .  S
Fe967       O972   1.973       .  S
Fe967       O979   2.034       .  S
Fe967       O968   2.146       .  S
Fe967       O976   1.937       .  S
O968        C975   1.286       .  A
O969        C983   1.253       .  A
O970        C975   1.277       .  A
O971        C974   1.279       .  A
O972        C984   1.252       .  A
O973        C986   1.273       .  A
C974        O979   1.263       .  A
C974       C1519   1.478       .  S
C975       C1469   1.534       .  S
O977        C980   1.254       .  A
O978        C980   1.280       .  A
C980       C1449   1.479       .  S
O981        C986   1.274       .  A
O982        C984   1.268       .  A
C983        O985   1.283       .  A
C983       C1439   1.492       .  S
C984       C1406   1.430       .  S
C986       C1399   1.477       .  S
Fe987      O1003   2.143       .  S
Fe987       O993   2.101       .  S
Fe987      O1000   2.105       .  S
Fe987       O992   2.112       .  S
Fe987       O998   1.927       .  S
Fe988       O991   2.080       .  S
Fe988       O995   2.009       .  S
Fe988       O999   2.077       .  S
Fe988      O1004   1.977       .  S
Fe988       O998   1.944       .  S
Fe989      O1007   1.996       .  S
Fe989       O994   2.148       .  S
Fe989      O1001   2.135       .  S
Fe989       O990   2.057       .  S
Fe989       O998   1.945       .  S
O990        C997   1.271       .  A
O991       C1005   1.270       .  A
O992        C997   1.280       .  A
O993        C996   1.279       .  A
O994       C1006   1.281       .  A
O995       C1008   1.256       .  A
C996       O1001   1.283       .  A
C996       C1429   1.542       .  S
C997       C1539   1.494       .  S
O999       C1002   1.273       .  A
O1000      C1002   1.277       .  A
C1002      C1386   1.500       .  S
O1003      C1008   1.284       .  A
O1004      C1006   1.245       .  A
C1005      O1007   1.260       .  A
C1005      C1409   1.431       .  S
C1006      C1489   1.494       .  S
C1008      C1476   1.486       .  S
Fe1009     O1025   2.115       .  S
Fe1009     O1015   2.124       .  S
Fe1009     O1022   2.135       .  S
Fe1009     O1014   2.107       .  S
Fe1009     O1020   1.908       .  S
Fe1010     O1013   2.030       .  S
Fe1010     O1017   2.058       .  S
Fe1010     O1021   1.996       .  S
Fe1010     O1026   2.068       .  S
Fe1010     O1020   1.932       .  S
Fe1011     O1029   2.128       .  S
Fe1011     O1016   1.992       .  S
Fe1011     O1023   2.033       .  S
Fe1011     O1012   2.116       .  S
Fe1011     O1020   1.922       .  S
O1012      C1019   1.277       .  A
O1013      C1027   1.259       .  A
O1014      C1019   1.277       .  A
O1015      C1018   1.283       .  A
O1016      C1028   1.259       .  A
O1017      C1030   1.259       .  A
C1018      O1023   1.266       .  A
C1018      C1336   1.478       .  S
C1019      C1346   1.550       .  S
O1021      C1024   1.257       .  A
O1022      C1024   1.288       .  A
C1024      C1369   1.492       .  S
O1025      C1030   1.276       .  A
O1026      C1028   1.270       .  A
C1027      O1029   1.278       .  A
C1027      C1359   1.489       .  S
C1028      C1376   1.451       .  S
C1030      C1609   1.508       .  S
Fe1031     O1047   2.105       .  S
Fe1031     O1037   2.085       .  S
Fe1031     O1044   2.100       .  S
Fe1031     O1036   2.095       .  S
Fe1031     O1042   1.968       .  S
Fe1032     O1035   2.043       .  S
Fe1032     O1039   2.006       .  S
Fe1032     O1043   2.059       .  S
Fe1032     O1048   1.978       .  S
Fe1032     O1042   1.964       .  S
Fe1033     O1051   1.995       .  S
Fe1033     O1038   2.123       .  S
Fe1033     O1045   2.143       .  S
Fe1033     O1034   2.016       .  S
Fe1033     O1042   1.950       .  S
O1034      C1041   1.256       .  A
O1035      C1049   1.267       .  A
O1036      C1041   1.271       .  A
O1037      C1040   1.276       .  A
O1038      C1050   1.277       .  A
O1039      C1052   1.248       .  A
C1040      O1045   1.287       .  A
C1040      C1306   1.528       .  S
C1041      C1296   1.477       .  S
O1043      C1046   1.274       .  A
O1044      C1046   1.280       .  A
C1046      C1559   1.488       .  S
O1047      C1052   1.272       .  A
O1048      C1050   1.244       .  A
C1049      O1051   1.259       .  A
C1049      C1379   1.430       .  S
C1050      C1326   1.492       .  S
Fe1053     O1069   2.097       .  S
Fe1053     O1059   2.094       .  S
Fe1053     O1066   2.116       .  S
Fe1053     O1058   2.091       .  S
Fe1053     O1064   1.965       .  S
Fe1054     O1057   2.058       .  S
Fe1054     O1061   2.009       .  S
Fe1054     O1065   2.055       .  S
Fe1054     O1070   1.991       .  S
Fe1054     O1064   1.970       .  S
Fe1055     O1073   2.027       .  S
Fe1055     O1060   2.118       .  S
Fe1055     O1067   2.116       .  S
Fe1055     O1056   2.047       .  S
Fe1055     O1064   1.955       .  S
O1056      C1063   1.262       .  A
O1057      C1071   1.271       .  A
O1058      C1063   1.270       .  A
O1059      C1062   1.279       .  A
O1060      C1072   1.277       .  A
O1061      C1074   1.249       .  A
C1062      O1067   1.283       .  A
C1062      C1309   1.521       .  S
C1063      C1276   1.481       .  S
O1065      C1068   1.274       .  A
O1066      C1068   1.285       .  A
C1068      C1529   1.491       .  S
O1069      C1074   1.268       .  A
O1070      C1072   1.248       .  A
C1071      O1073   1.266       .  A
C1071      C1286   1.459       .  S
C1072      C1366   1.491       .  S
C1074      C1356   1.478       .  S
Fe1075     O1091   2.115       .  S
Fe1075     O1081   2.134       .  S
Fe1075     O1088   2.142       .  S
Fe1075     O1080   2.086       .  S
Fe1075     O1086   1.902       .  S
Fe1076     O1079   2.012       .  S
Fe1076     O1083   2.061       .  S
Fe1076     O1087   2.003       .  S
Fe1076     O1092   2.123       .  S
Fe1076     O1086   1.905       .  S
Fe1077     O1095   2.138       .  S
Fe1077     O1082   1.970       .  S
Fe1077     O1089   2.026       .  S
Fe1077     O1078   2.150       .  S
Fe1077     O1086   1.909       .  S
O1078      C1085   1.290       .  A
O1079      C1093   1.238       .  A
O1080      C1085   1.280       .  A
O1081      C1084   1.281       .  A
O1082      C1094   1.256       .  A
O1083      C1096   1.266       .  A
C1084      O1089   1.257       .  A
C1084      C1266   1.496       .  S
C1085      C1349   1.531       .  S
O1087      C1090   1.259       .  A
O1088      C1090   1.291       .  A
C1090      C1329   1.497   1_554  S
O1091      C1096   1.276       .  A
O1092      C1094   1.281       .  A
C1093      O1095   1.277       .  A
C1093      C1319   1.488       .  S
C1094      C1289   1.442       .  S
C1096      C1509   1.515       .  S
Fe1097     O1113   2.094       .  S
Fe1097     O1103   2.125       .  S
Fe1097     O1110   2.138       .  S
Fe1097     O1102   2.095       .  S
Fe1097     O1108   1.917       .  S
Fe1098     O1101   2.031       .  S
Fe1098     O1105   2.062       .  S
Fe1098     O1109   2.037       .  S
Fe1098     O1114   2.071       .  S
Fe1098     O1108   1.940       .  S
Fe1099     O1117   2.163       .  S
Fe1099     O1104   1.993       .  S
Fe1099     O1111   2.038       .  S
Fe1099     O1100   2.135       .  S
Fe1099     O1108   1.912       .  S
O1100      C1107   1.281       .  A
O1101      C1115   1.263       .  A
O1102      C1107   1.276       .  A
O1103      C1106   1.282       .  A
O1104      C1116   1.252       .  A
O1105      C1118   1.268       .  A
C1106      O1111   1.268       .  A
C1106      C1339   1.482       .  S
C1107      C1229   1.545       .  S
O1109      C1112   1.266       .  A
O1110      C1112   1.286       .  A
O1113      C1118   1.274       .  A
O1114      C1116   1.266       .  A
C1115      O1117   1.287       .  A
C1115      C1236   1.521       .  S
C1116      C1259   1.446       .  S
C1118      C1459   1.486       .  S
Fe1119     O1135   2.089       .  S
Fe1119     O1125   2.101       .  S
Fe1119     O1132   2.109       .  S
Fe1119     O1124   2.078       .  S
Fe1119     O1130   1.958       .  S
Fe1120     O1123   2.031       .  S
Fe1120     O1127   2.015       .  S
Fe1120     O1131   2.029       .  S
Fe1120     O1136   2.034       .  S
Fe1120     O1130   1.952       .  S
Fe1121     O1139   2.021       .  S
Fe1121     O1126   2.113       .  S
Fe1121     O1133   2.143       .  S
Fe1121     O1122   2.042       .  S
Fe1121     O1130   1.946       .  S
O1122      C1129   1.264       .  A
O1123      C1137   1.260       .  A
O1124      C1129   1.265       .  A
O1125      C1128   1.280       .  A
O1126      C1138   1.282       .  A
O1127      C1140   1.251       .  A
C1128      O1133   1.289       .  A
C1128      C1196   1.547       .  S
C1129      C1299   1.483       .  S
O1131      C1134   1.271       .  A
O1132      C1134   1.285       .  A
C1134      C1416   1.472       .  S
O1135      C1140   1.266       .  A
O1136      C1138   1.260       .  A
C1137      O1139   1.251       .  A
C1137      C1256   1.454       .  S
C1138      C1219   1.483       .  S
C1140      C1206   1.474       .  S
Fe1141     O1157   2.129       .  S
Fe1141     O1147   2.090       .  S
Fe1141     O1154   2.067       .  S
Fe1141     O1146   2.132       .  S
Fe1141     O1152   1.923       .  S
Fe1142     O1145   2.105       .  S
Fe1142     O1149   2.041       .  S
Fe1142     O1153   2.082       .  S
Fe1142     O1158   2.044       .  S
Fe1142     O1152   1.933       .  S
Fe1143     O1161   1.990       .  S
Fe1143     O1148   2.177       .  S
Fe1143     O1155   2.129       .  S
Fe1143     O1144   2.040       .  S
Fe1143     O1152   1.916       .  S
O1144      C1151   1.272       .  A
O1145      C1159   1.279       .  A
O1146      C1151   1.287       .  A
O1147      C1150   1.270       .  A
O1148      C1160   1.286       .  A
O1149      C1162   1.264       .  A
C1150      O1155   1.278       .  A
C1150      C1199   1.540       .  S
C1151      C1279   1.488       .  S
O1153      C1156   1.276       .  A
O1154      C1156   1.272       .  A
C1156      C1389   1.476       .  S
O1157      C1162   1.281       .  A
O1158      C1160   1.260       .  A
C1159      O1161   1.250       .  A
C1159      C1186   1.448       .  S
C1160      C1249   1.518       .  S
C1162      C1239   1.493       .  S
Fe1163     O1179   2.114       .  S
Fe1163     O1169   2.120       .  S
Fe1163     O1176   2.143       .  S
Fe1163     O1168   2.112       .  S
Fe1163     O1174   1.903       .  S
Fe1164     O1167   1.982       .  S
Fe1164     O1171   2.075       .  S
Fe1164     O1175   2.017       .  S
Fe1164     O1180   2.094       .  S
Fe1164     O1174   1.923       .  S
Fe1165     O1183   2.160       .  S
Fe1165     O1170   2.000       .  S
Fe1165     O1177   2.046       .  S
Fe1165     O1166   2.115       .  S
Fe1165     O1174   1.934       .  S
O1166      C1173   1.276       .  A
O1167      C1181   1.237       .  A
O1168      C1173   1.278       .  A
O1169      C1172   1.286       .  A
O1170      C1182   1.256       .  A
O1171      C1184   1.271       .  A
C1172      O1177   1.272       .  A
C1172      C1269   1.486       .  S
C1173      C1226   1.543       .  S
O1175      C1178   1.262       .  A
O1176      C1178   1.287       .  A
C1178      C1216   1.485       .  S
O1179      C1184   1.277       .  A
O1180      C1182   1.276       .  A
C1181      O1183   1.276       .  A
C1181      C1209   1.507       .  S
C1182      C1189   1.445       .  S
C1184      C1396   1.505       .  S
C1185      C1186   1.423       .  A
C1185      C1190   1.392       .  A
C1185     Br1192   1.943       .  S
C1186      C1187   1.399       .  A
C1187      C1188   1.393       .  A
C1187     Br1194   1.935       .  S
C1188      C1189   1.418       .  A
C1188     Br1193   1.936       .  S
C1189      C1190   1.398       .  A
C1190     Br1191   1.937       .  S
C1195      C1196   1.431       .  A
C1195      C1200   1.428       .  A
C1195     Br1202   1.941       .  S
C1196      C1197   1.424       .  A
C1197      C1198   1.426       .  A
C1197     Br1204   1.922       .  S
C1198      C1199   1.424       .  A
C1198     Br1203   1.937       .  S
C1199      C1200   1.425       .  A
C1200     Br1201   1.930       .  S
C1205      C1206   1.410       .  A
C1205      C1210   1.409       .  A
C1205     Br1212   1.927       .  S
C1206      C1207   1.395       .  A
C1207      C1208   1.408       .  A
C1207     Br1214   1.938       .  S
C1208      C1209   1.442       .  A
C1208     Br1213   1.940       .  S
C1209      C1210   1.414       .  A
C1210     Br1211   1.929       .  S
C1215      C1216   1.414       .  A
C1215     Br1222   1.933       .  S
C1217      C1218   1.414       .  A
C1218      C1219   1.416       .  A
C1218     Br1223   1.924       .  S
C1219      C1220   1.411       .  A
C1220     Br1221   1.929       .  S
C1225      C1230   1.430       .  A
C1225     Br1232   1.938       .  S
C1226      C1227   1.430       .  A
C1227      C1228   1.428       .  A
C1227     Br1234   1.933       .  S
C1228     Br1233   1.939       .  S
C1229      C1230   1.428       .  A
C1230     Br1231   1.926       .  S
C1235      C1236   1.422       .  A
C1235      C1240   1.414       .  A
C1235     Br1242   1.918       .  S
C1236      C1237   1.429       .  A
C1237      C1238   1.419       .  A
C1237     Br1244   1.932       .  S
C1238      C1239   1.406       .  A
C1238     Br1243   1.926       .  S
C1239      C1240   1.408       .  A
C1240     Br1241   1.936       .  S
C1245      C1246   1.405       .  A
C1245      C1250   1.416       .  A
C1245     Br1252   1.932       .  S
C1246      C1247   1.407       .  A
C1247      C1248   1.414       .  A
C1248      C1249   1.418       .  A
C1248     Br1253   1.910       .  S
C1249      C1250   1.419       .  A
C1250     Br1251   1.901       .  S
C1255      C1256   1.424       .  A
C1255      C1260   1.390       .  A
C1255     Br1262   1.936       .  S
C1256      C1257   1.409       .  A
C1257      C1258   1.389       .  A
C1257     Br1264   1.943       .  S
C1258      C1259   1.414       .  A
C1258     Br1263   1.941       .  S
C1259      C1260   1.399       .  A
C1260     Br1261   1.943       .  S
C1265      C1266   1.413       .  A
C1265      C1270   1.412       .  A
C1265     Br1272   1.933       .  S
C1266      C1267   1.427       .  A
C1267      C1268   1.407       .  A
C1267     Br1274   1.942       .  S
C1268      C1269   1.407       .  A
C1268     Br1273   1.938       .  S
C1269      C1270   1.413       .  A
C1270     Br1271   1.919       .  S
C1275      C1276   1.409       .  A
C1275      C1280   1.406       .  A
C1275     Br1282   1.934       .  S
C1276      C1277   1.409       .  A
C1277      C1278   1.416       .  A
C1277     Br1284   1.926       .  S
C1278      C1279   1.415       .  A
C1278     Br1283   1.928       .  S
C1279      C1280   1.415       .  A
C1280     Br1281   1.936       .  S
C1285      C1286   1.402   1_554  A
C1285      C1290   1.400       .  A
C1285     Br1292   1.923       .  S
C1286      C1287   1.411       .  A
C1287      C1288   1.393   1_556  A
C1287     Br1294   1.929       .  S
C1288      C1289   1.403       .  A
C1288     Br1293   1.932       .  S
C1289      C1290   1.410       .  A
C1290     Br1291   1.925       .  S
C1295      C1296   1.411       .  A
C1295      C1300   1.395       .  A
C1295     Br1302   1.929       .  S
C1296      C1297   1.411       .  A
C1297      C1298   1.416       .  A
C1297     Br1304   1.928       .  S
C1298      C1299   1.415       .  A
C1298     Br1303   1.922       .  S
C1299      C1300   1.409       .  A
C1300     Br1301   1.933       .  S
C1305      C1310   1.421       .  A
C1305     Br1312   1.933       .  S
C1306      C1307   1.419       .  A
C1307     Br1314   1.915       .  S
C1308      C1309   1.418       .  A
C1308     Br1313   1.934   1_565  S
C1309      C1310   1.419       .  A
C1310     Br1311   1.931       .  S
C1315     Br1322   1.918       .  S
C1316      C1317   1.401       .  A
C1317      C1318   1.410   1_556  A
C1317     Br1324   1.935       .  S
C1318      C1319   1.434       .  A
C1318     Br1323   1.935   1_554  S
C1319      C1320   1.399       .  A
C1320     Br1321   1.938       .  S
C1325      C1326   1.404       .  A
C1325      C1330   1.412       .  A
C1325     Br1332   1.930       .  S
C1326      C1327   1.429       .  A
C1327      C1328   1.403   1_556  A
C1327     Br1334   1.941       .  S
C1328      C1329   1.408   1_554  A
C1328     Br1333   1.941       .  S
C1329      C1330   1.430       .  A
C1330     Br1331   1.933       .  S
C1335      C1336   1.409       .  A
C1335      C1340   1.402       .  A
C1335     Br1342   1.930       .  S
C1336      C1337   1.410       .  A
C1337      C1338   1.415       .  A
C1337     Br1344   1.926       .  S
C1338      C1339   1.412       .  A
C1338     Br1343   1.923       .  S
C1339      C1340   1.411       .  A
C1340     Br1341   1.932       .  S
C1345      C1346   1.436       .  A
C1345      C1350   1.426       .  A
C1345     Br1352   1.935       .  S
C1346      C1347   1.433       .  A
C1347      C1348   1.430       .  A
C1347     Br1354   1.938       .  S
C1348      C1349   1.420       .  A
C1348     Br1353   1.931       .  S
C1349      C1350   1.415       .  A
C1350     Br1351   1.937       .  S
C1355      C1356   1.411   1_544  A
C1355     Br1362   1.929   1_545  S
C1357      C1358   1.412   1_556  A
C1358      C1359   1.411       .  A
C1358     Br1363   1.927       .  S
C1359      C1360   1.412       .  A
C1360     Br1361   1.930       .  S
C1365      C1366   1.427       .  A
C1365      C1370   1.404   1_556  A
C1365     Br1372   1.939       .  S
C1366      C1367   1.403       .  A
C1367      C1368   1.412       .  A
C1367     Br1374   1.933       .  S
C1368      C1369   1.431   1_556  A
C1368     Br1373   1.936       .  S
C1369      C1370   1.408       .  A
C1370     Br1371   1.940       .  S
C1375      C1376   1.398   1_556  A
C1375      C1380   1.392       .  A
C1375     Br1382   1.930       .  S
C1376      C1377   1.409       .  A
C1377      C1378   1.392       .  A
C1377     Br1384   1.933       .  S
C1378      C1379   1.404   1_554  A
C1378     Br1383   1.931       .  S
C1379      C1380   1.405       .  A
C1380     Br1381   1.921       .  S
C1385      C1386   1.420       .  A
C1385      C1390   1.403   1_655  A
C1385     Br1392   1.903       .  S
C1386      C1387   1.409   1_655  A
C1387      C1388   1.416       .  A
C1387     Br1394   1.922       .  S
C1388      C1389   1.410       .  A
C1388     Br1393   1.921       .  S
C1389      C1390   1.393       .  A
C1390     Br1391   1.929       .  S
C1395      C1396   1.423       .  A
C1395      C1400   1.402       .  A
C1395     Br1402   1.903       .  S
C1396      C1397   1.410       .  A
C1397      C1398   1.417       .  A
C1397     Br1404   1.925       .  S
C1398      C1399   1.413       .  A
C1398     Br1403   1.918       .  S
C1399      C1400   1.392       .  A
C1400     Br1401   1.933       .  S
C1405      C1406   1.410       .  A
C1405      C1410   1.391       .  A
C1405     Br1412   1.926       .  S
C1406      C1407   1.393       .  A
C1407      C1408   1.387       .  A
C1407     Br1414   1.924       .  S
C1408      C1409   1.407       .  A
C1408     Br1413   1.919       .  S
C1409      C1410   1.396       .  A
C1410     Br1411   1.925       .  S
C1415      C1416   1.412       .  A
C1415      C1420   1.413       .  A
C1415     Br1422   1.926       .  S
C1416      C1417   1.400       .  A
C1417      C1418   1.401       .  A
C1417     Br1424   1.936       .  S
C1418      C1419   1.428       .  A
C1418     Br1423   1.942       .  S
C1419      C1420   1.415       .  A
C1420     Br1421   1.930       .  S
C1425      C1426   1.430       .  A
C1425      C1430   1.428       .  A
C1425     Br1432   1.937       .  S
C1427      C1428   1.430       .  A
C1427     Br1434   1.935       .  S
C1428      C1429   1.428       .  A
C1428     Br1433   1.934       .  S
C1430     Br1431   1.936       .  S
C1435      C1436   1.399       .  A
C1435      C1440   1.384       .  A
C1435     Br1442   1.928       .  S
C1436      C1437   1.428       .  A
C1437      C1438   1.422       .  A
C1438      C1439   1.411       .  A
C1438     Br1443   1.921       .  S
C1439      C1440   1.416       .  A
C1440     Br1441   1.912       .  S
C1445      C1446   1.412       .  A
C1445      C1450   1.415       .  A
C1445     Br1452   1.928       .  S
C1446      C1447   1.409       .  A
C1447      C1448   1.408       .  A
C1447     Br1454   1.927       .  S
C1448      C1449   1.406       .  A
C1448     Br1453   1.925       .  S
C1449      C1450   1.412       .  A
C1450     Br1451   1.926       .  S
C1455      C1456   1.426       .  A
C1455      C1460   1.407   1_655  A
C1455     Br1462   1.934       .  S
C1456      C1457   1.418       .  A
C1457      C1458   1.416   1_655  A
C1457     Br1464   1.932       .  S
C1458      C1459   1.413       .  A
C1458     Br1463   1.929       .  S
C1459      C1460   1.402       .  A
C1460     Br1461   1.931       .  S
C1465      C1466   1.434       .  A
C1465      C1470   1.428       .  A
C1465     Br1472   1.931       .  S
C1466      C1467   1.433       .  A
C1467      C1468   1.430       .  A
C1467     Br1474   1.935       .  S
C1468      C1469   1.420       .  A
C1468     Br1473   1.933       .  S
C1469      C1470   1.417       .  A
C1470     Br1471   1.938       .  S
C1475      C1480   1.411       .  A
C1475     Br1482   1.923       .  S
C1476      C1477   1.414       .  A
C1477     Br1484   1.926       .  S
C1478      C1479   1.411       .  A
C1478     Br1483   1.927       .  S
C1479      C1480   1.408       .  A
C1480     Br1481   1.919       .  S
C1485      C1486   1.417       .  A
C1485      C1490   1.409       .  A
C1485     Br1492   1.943       .  S
C1486      C1487   1.437       .  A
C1487      C1488   1.416       .  A
C1487     Br1494   1.939       .  S
C1488      C1489   1.402       .  A
C1488     Br1493   1.934       .  S
C1489      C1490   1.424       .  A
C1490     Br1491   1.941       .  S
C1495      C1496   1.418       .  A
C1495      C1500   1.392       .  A
C1495     Br1502   1.930       .  S
C1496      C1497   1.409       .  A
C1497      C1498   1.393       .  A
C1497     Br1504   1.934       .  S
C1498      C1499   1.399       .  A
C1498     Br1503   1.919       .  S
C1499      C1500   1.397       .  A
C1500     Br1501   1.935       .  S
C1505      C1506   1.417       .  A
C1505      C1510   1.406       .  A
C1505     Br1512   1.936       .  S
C1506      C1507   1.418       .  A
C1507      C1508   1.427       .  A
C1507     Br1514   1.929       .  S
C1508      C1509   1.425       .  A
C1508     Br1513   1.931       .  S
C1509      C1510   1.418       .  A
C1510     Br1511   1.938       .  S
C1515      C1516   1.410       .  A
C1515      C1520   1.404       .  A
C1515     Br1522   1.931       .  S
C1516      C1517   1.411       .  A
C1517      C1518   1.414       .  A
C1517     Br1524   1.920       .  S
C1518      C1519   1.409       .  A
C1518     Br1523   1.928       .  S
C1519      C1520   1.411       .  A
C1520     Br1521   1.933       .  S
C1525      C1526   1.404   1_455  A
C1525      C1530   1.409       .  A
C1525     Br1532   1.926       .  S
C1526      C1527   1.417       .  A
C1527      C1528   1.413   1_655  A
C1527     Br1534   1.924       .  S
C1528      C1529   1.405       .  A
C1528     Br1533   1.925       .  S
C1529      C1530   1.415       .  A
C1530     Br1531   1.921       .  S
C1535      C1536   1.421       .  A
C1535      C1540   1.413       .  A
C1535     Br1542   1.937       .  S
C1536      C1537   1.427       .  A
C1537      C1538   1.412       .  A
C1537     Br1544   1.939       .  S
C1538      C1539   1.410       .  A
C1538     Br1543   1.937       .  S
C1539      C1540   1.411       .  A
C1540     Br1541   1.921       .  S
C1545      C1546   1.412   1_554  A
C1545      C1550   1.400       .  A
C1545     Br1552   1.935       .  S
C1546      C1547   1.436       .  A
C1547      C1548   1.397       .  A
C1547     Br1554   1.943       .  S
C1548      C1549   1.394   1_556  A
C1548     Br1553   1.940       .  S
C1549      C1550   1.411       .  A
C1550     Br1551   1.936       .  S
C1555      C1556   1.398       .  A
C1555      C1560   1.404       .  A
C1555     Br1562   1.927       .  S
C1556      C1557   1.413       .  A
C1557      C1558   1.412       .  A
C1557     Br1564   1.928       .  S
C1558      C1559   1.407       .  A
C1558     Br1563   1.925       .  S
C1559      C1560   1.416       .  A
C1560     Br1561   1.918       .  S
C1565      C1566   1.417       .  A
C1565      C1570   1.401       .  A
C1565     Br1572   1.939       .  S
C1566      C1567   1.415       .  A
C1567      C1568   1.418       .  A
C1567     Br1574   1.928       .  S
C1568      C1569   1.411       .  A
C1568     Br1573   1.925       .  S
C1569      C1570   1.408       .  A
C1570     Br1571   1.933       .  S
C1575      C1576   1.429       .  A
C1575      C1580   1.427       .  A
C1575     Br1582   1.938       .  S
C1576      C1577   1.434       .  A
C1577      C1578   1.421       .  A
C1577     Br1584   1.940       .  S
C1578      C1579   1.414       .  A
C1578     Br1583   1.931       .  S
C1579      C1580   1.425       .  A
C1580     Br1581   1.936       .  S
C1585      C1586   1.412       .  A
C1585     Br1592   1.932       .  S
C1586      C1587   1.426       .  A
C1587      C1588   1.404       .  A
C1587     Br1594   1.933       .  S
C1588     Br1593   1.938   1_556  S
C1589      C1590   1.417   1_554  A
C1590     Br1591   1.933       .  S
C1595      C1596   1.430       .  A
C1595      C1600   1.407   1_554  A
C1595     Br1602   1.930   1_554  S
C1596      C1597   1.405       .  A
C1597      C1598   1.409       .  A
C1597     Br1604   1.936       .  S
C1598      C1599   1.426   1_554  A
C1598     Br1603   1.929       .  S
C1599      C1600   1.402       .  A
C1600     Br1601   1.938       .  S
C1605      C1606   1.414       .  A
C1605      C1610   1.418   1_655  A
C1605     Br1612   1.929       .  S
C1606      C1607   1.404   1_655  A
C1607      C1608   1.408       .  A
C1607     Br1614   1.933   1_455  S
C1608      C1609   1.430       .  A
C1608     Br1613   1.941       .  S
C1609      C1610   1.418       .  A
C1610     Br1611   1.931       .  S
C1615      C1616   1.408       .  A
C1615      C1620   1.401       .  A
C1615     Br1622   1.925       .  S
C1616      C1617   1.410       .  A
C1617      C1618   1.416       .  A
C1617     Br1624   1.927       .  S
C1618      C1619   1.413       .  A
C1618     Br1623   1.923       .  S
C1619      C1620   1.410       .  A
C1620     Br1621   1.931       .  S
C1625      C1630   1.428       .  A
C1625     Br1632   1.937       .  S
C1626      C1627   1.428       .  A
C1627      C1628   1.429       .  A
C1627     Br1634   1.937       .  S
C1628     Br1633   1.937       .  S
C1629      C1630   1.428       .  A
C1630     Br1631   1.936       .  S
C1635      C1636   1.421       .  A
C1635      C1640   1.403       .  A
C1635     Br1642   1.929       .  S
C1636      C1637   1.405       .  A
C1637      C1638   1.413       .  A
C1637     Br1644   1.932       .  S
C1638      C1639   1.427       .  A
C1639      C1640   1.407       .  A
C1640     Br1641   1.936   1_556  S
C1645      C1646   1.428       .  A
C1645      C1650   1.410       .  A
C1645     Br1652   1.935       .  S
C1646      C1647   1.417       .  A
C1647      C1648   1.417       .  A
C1647     Br1654   1.932       .  S
C1648      C1649   1.412   1_554  A
C1648     Br1653   1.930   1_554  S
C1649      C1650   1.402   1_556  A
C1650     Br1651   1.934   1_554  S
C1655      C1656   1.402   1_554  A
C1655      C1660   1.393       .  A
C1655     Br1662   1.931       .  S
C1656      C1657   1.404       .  A
C1657      C1658   1.394       .  A
C1657     Br1664   1.929       .  S
C1658      C1659   1.401   1_556  A
C1658     Br1663   1.921       .  S
C1659      C1660   1.410       .  A
C1660     Br1661   1.932       .  S
