geometry optimzed in LAMMPS
_audit_creation_date              2020-12-01 
_audit_creation_method            'lammps2cif' 
_symmetry_space_group_name_H-M    'P1' 
_symmetry_Int_Tables_number       1 
_symmetry_cell_setting            triclinic 
loop_ 
_symmetry_equiv_pos_as_xyz 
  x,y,z 
_cell_length_a                    45.42702855 
_cell_length_b                    30.070963366082793 
_cell_length_c                    56.83890128850011 
_cell_angle_alpha                 90.06538395048806 
_cell_angle_beta                  89.8779414802005 
_cell_angle_gamma                 89.91155695933489 
loop_ 
_atom_site_label 
_atom_site_type_symbol 
_atom_site_fract_x 
_atom_site_fract_y 
_atom_site_fract_z 
_atom_site_charge 
Fe1        Fe  0.66472077  0.41879635  0.63032534     1.65800
Fe2        Fe  0.65521788  0.31843043  0.60366400     1.73200
Fe3        Fe  0.72030455  0.34296331  0.62938138     1.54400
O4          O  0.73779524  0.40685227  0.62720224    -0.82000
O5          O  0.66205214  0.26706446  0.62713395    -0.80300
O6          O  0.70111455  0.45222301  0.61782028    -0.84500
O7          O  0.68416538  0.41452947  0.66398307    -0.79400
O8          O  0.73094170  0.33139367  0.59462800    -0.81200
O9          O  0.61683597  0.33434534  0.62127956    -0.83900
C10         C  0.70148847  0.38750864  0.67456016     0.96900
C11         C  0.72813831  0.44503957  0.62164507     1.04300
O12         O  0.67989515  0.36011915  0.62133582    -1.12900
O13         O  0.64709272  0.36541215  0.57803468    -0.75300
O14         O  0.64564479  0.42993191  0.59717430    -0.78800
O15         O  0.71231471  0.35350559  0.66438630    -0.79500
C16         C  0.64288330  0.40722877  0.57831872     0.95800
O17         O  0.62563403  0.39333556  0.64384401    -0.77500
O18         O  0.69003784  0.29580985  0.58385891    -0.82600
C19         C  0.68699554  0.25175079  0.63315613     0.98400
C20         C  0.71703293  0.30520510  0.58111139     1.04300
O21         O  0.70999544  0.27582892  0.63339015    -0.78300
C22         C  0.60892843  0.36214369  0.63684716     1.02600
Fe23       Fe  0.83935614  0.06674978  0.37153075     1.65800
Fe24       Fe  0.84698594  0.15306805  0.40969817     1.73200
Fe25       Fe  0.77957636  0.12934522  0.38637735     1.54400
O26         O  0.78046009  0.11930311  0.35038747    -0.82000
O27         O  0.81834133  0.14997894  0.43726296    -0.80300
O28         O  0.82422585  0.09186306  0.33940758    -0.84500
O29         O  0.80271136  0.02634781  0.37387304    -0.79400
O30         O  0.78629718  0.19652658  0.38089300    -0.81200
O31         O  0.86737291  0.09749450  0.42404294    -0.83900
C32         C  0.77772023  0.02829934  0.38371381     0.96900
C33         C  0.79866754  0.10725776  0.33452602     1.04300
O34         O  0.82192115  0.11685368  0.38904724    -1.12900
O35         O  0.87922692  0.16171612  0.38480796    -0.75300
O36         O  0.88048957  0.09655030  0.36671883    -0.78800
O37         O  0.76727137  0.06408776  0.39204041    -0.79500
C38         C  0.89257000  0.13302492  0.37253292     0.95800
O39         O  0.85308592  0.03870392  0.40293897    -0.77500
O40         O  0.82854387  0.21261176  0.39893790    -0.82600
C41         C  0.79066790  0.14824230  0.43918719     0.98400
C42         C  0.80525554  0.22431210  0.38824294     1.04300
O43         O  0.77369775  0.14114620  0.42188170    -0.78300
C44         C  0.86390187  0.05577982  0.42152416     1.02600
Fe45       Fe  0.33759098  0.42527170  0.63466091     1.65800
Fe46       Fe  0.34843239  0.33659883  0.59929956     1.73200
Fe47       Fe  0.27998230  0.36080193  0.61968634     1.54400
O48         O  0.27789728  0.37834320  0.65495804    -0.82000
O49         O  0.32246317  0.34162280  0.57006286    -0.80300
O50         O  0.32217566  0.40114613  0.66703055    -0.84500
O51         O  0.29984601  0.46311358  0.63121460    -0.79400
O52         O  0.28778604  0.29591382  0.62963149    -0.81200
O53         O  0.37219275  0.39074364  0.58677331    -0.83900
C54         C  0.27666878  0.46071363  0.61890860     0.96900
C55         C  0.29597720  0.38760372  0.67134429     1.04300
O56         O  0.32194908  0.37367501  0.61807708    -1.12900
O57         O  0.37716606  0.32787476  0.62677033    -0.75300
O58         O  0.37901415  0.39691454  0.64037355    -0.78800
O59         O  0.26810387  0.42455195  0.60966740    -0.79500
C60         C  0.39044094  0.35859585  0.63769089     0.95800
O61         O  0.35097812  0.45079642  0.60241601    -0.77500
O62         O  0.32746891  0.27786854  0.60865202    -0.82600
C63         C  0.29504042  0.33524507  0.56794838     0.98400
C64         C  0.30533248  0.26707439  0.62111656     1.04300
O65         O  0.27707230  0.34009904  0.58492724    -0.78300
C66         C  0.36487687  0.43149951  0.58580196     1.02600
Fe67       Fe  0.16301032  0.06472406  0.37249167     1.65800
Fe68       Fe  0.15592337  0.16016852  0.40410529     1.73200
Fe69       Fe  0.22245466  0.13073272  0.38271694     1.54400
O70         O  0.23649307  0.06521929  0.38533647    -0.82000
O71         O  0.16660359  0.21175726  0.38200541    -0.80300
O72         O  0.19615719  0.02395660  0.38347672    -0.84500
O73         O  0.18477062  0.07397340  0.34004653    -0.79400
O74         O  0.22851895  0.13771492  0.41828187    -0.81200
O75         O  0.11759518  0.14941757  0.38539457    -0.83900
C76         C  0.20680522  0.09747603  0.33350224     0.96900
C77         C  0.22372693  0.02777245  0.38516430     1.04300
O78         O  0.18039931  0.11836515  0.38610203    -1.12900
O79         O  0.14527692  0.11061660  0.42726073    -0.75300
O80         O  0.14181932  0.04991422  0.40451432    -0.78800
O81         O  0.22016499  0.12425119  0.34703953    -0.79500
C82         C  0.13991401  0.06946677  0.42449035     0.95800
O83         O  0.12650035  0.09676788  0.35909406    -0.77500
O84         O  0.18940523  0.17925064  0.42649429    -0.82600
C85         C  0.19279002  0.22456889  0.37797859     0.98400
C86         C  0.21515941  0.16568746  0.43105438     1.04300
O87         O  0.21482072  0.19849548  0.37940935    -0.78300
C88         C  0.10961302  0.12545017  0.36824631     1.02600
Fe89       Fe  0.16276572  0.92703509  0.63477540     1.65800
Fe90       Fe  0.15097733  0.83248794  0.60262512     1.73200
Fe91       Fe  0.21927354  0.85475010  0.62342664     1.54400
O92         O  0.23599089  0.91885385  0.62045200    -0.82000
O93         O  0.16129375  0.77705769  0.62237321    -0.80300
O94         O  0.19805330  0.96483581  0.62450316    -0.84500
O95         O  0.18357764  0.91371213  0.66718481    -0.79400
O96         O  0.22502296  0.84675133  0.58784879    -0.81200
O97         O  0.11437783  0.84342969  0.62356522    -0.83900
C98         C  0.20467334  0.88790858  0.67336285     0.96900
C99         C  0.22513169  0.95767703  0.62118385     1.04300
O100        O  0.17759588  0.87145672  0.62056551    -1.12900
O101        O  0.13994001  0.88434694  0.58096337    -0.75300
O102        O  0.14277259  0.94581783  0.60295723    -0.78800
O103        O  0.21746437  0.86147383  0.65916891    -0.79500
C104        C  0.13768511  0.92623570  0.58340481     0.95800
O105        O  0.12415425  0.89941227  0.64760419    -0.77500
O106        O  0.18271515  0.81410196  0.57851448    -0.82600
C107        C  0.18705630  0.76222517  0.62620397     0.98400
C108        C  0.20946257  0.82292249  0.57440331     1.04300
O109        O  0.20958643  0.78737050  0.62652382    -0.78300
C110        C  0.10695865  0.86955620  0.64005546     1.02600
Fe111      Fe  0.34175491  0.56352294  0.37504760     1.65800
Fe112      Fe  0.34879693  0.65565246  0.40957512     1.73200
Fe113      Fe  0.28203522  0.62849956  0.38813691     1.54400
O114        O  0.28456278  0.62778563  0.35201858    -0.82000
O115        O  0.31617382  0.66778749  0.43394811    -0.80300
O116        O  0.31996178  0.57824877  0.34320309    -0.84500
O117        O  0.30836992  0.52113987  0.38480344    -0.79400
O118        O  0.28839914  0.69669210  0.38845662    -0.81200
O119        O  0.36248030  0.60372286  0.42984878    -0.83900
C120        C  0.28081221  0.52559707  0.38698297     0.96900
C121        C  0.29890488  0.60436924  0.33723012     1.04300
O122        O  0.32430432  0.61568443  0.39064862    -1.12900
O123        O  0.38576005  0.64991432  0.38904188    -0.75300
O124        O  0.37878292  0.59698292  0.36275403    -0.78800
O125        O  0.26840430  0.56321892  0.38782566    -0.79500
C126        C  0.39465006  0.62729112  0.37171849     0.95800
O127        O  0.36356367  0.54423099  0.40610678    -0.77500
O128        O  0.33634058  0.71098359  0.39082911    -0.82600
C129        C  0.29090973  0.65244473  0.43874170     0.98400
C130        C  0.30989067  0.72370385  0.38855376     1.04300
O131        O  0.27631239  0.62938580  0.42415905    -0.78300
C132        C  0.36820603  0.56307067  0.42597073     1.02600
Fe133      Fe  0.83451122  0.91437872  0.63109301     1.65800
Fe134      Fe  0.83910701  0.81545431  0.60223204     1.73200
Fe135      Fe  0.77730001  0.84166563  0.63244669     1.54400
O136        O  0.78859824  0.85058378  0.66715198    -0.82000
O137        O  0.80172017  0.79343833  0.58481727    -0.80300
O138        O  0.81794232  0.91032495  0.66549233    -0.84500
O139        O  0.79809401  0.95040657  0.62156380    -0.79400
O140        O  0.78742600  0.77389810  0.63522191    -0.81200
O141        O  0.84484387  0.86294112  0.57659079    -0.83900
C142        C  0.77113076  0.94508675  0.62651420     0.96900
C143        C  0.80107652  0.88377397  0.67674002     1.04300
O144        O  0.81707185  0.85734549  0.62204495    -1.12900
O145        O  0.87983761  0.83073013  0.61653298    -0.75300
O146        O  0.87375697  0.88588754  0.64206107    -0.78800
O147        O  0.76079222  0.90690992  0.63148607    -0.79500
C148        C  0.88987821  0.85693360  0.63207987     0.95800
O149        O  0.85101707  0.92580467  0.59710000    -0.77500
O150        O  0.83461737  0.76437977  0.62613390    -0.82600
C151        C  0.77477665  0.80469856  0.58378560     0.98400
C152        C  0.81019795  0.74924428  0.63349792     1.04300
O153        O  0.76307456  0.83155383  0.59831840    -0.78300
C154        C  0.85091651  0.90411071  0.57775772     1.02600
Fe155      Fe  0.67101225  0.56215861  0.36873094     1.65800
Fe156      Fe  0.65200877  0.64749366  0.40436486     1.73200
Fe157      Fe  0.72280260  0.63490941  0.38600422     1.54400
O158        O  0.73846082  0.57275333  0.39582020    -0.82000
O159        O  0.66789503  0.70959836  0.39470536    -0.80300
O160        O  0.71156926  0.53177144  0.37163618    -0.84500
O161        O  0.68532406  0.59037132  0.33705451    -0.79400
O162        O  0.72317315  0.65365641  0.42106394    -0.81200
O163        O  0.62289229  0.64989114  0.37668349    -0.83900
C164        C  0.71090050  0.60719301  0.33361441     0.96900
C165        C  0.73381448  0.53690079  0.38469889     1.04300
O166        O  0.68190472  0.61561385  0.38619391    -1.12900
O167        O  0.63397920  0.58856235  0.41728555    -0.75300
O168        O  0.65871860  0.53288704  0.40047208    -0.78800
O169        O  0.72725845  0.61920357  0.35062837    -0.79500
C170        C  0.64330973  0.54849218  0.41738073     0.95800
O171        O  0.62760750  0.58161876  0.36272863    -0.77500
O172        O  0.67713087  0.64952791  0.43409674    -0.82600
C173        C  0.69056218  0.72417059  0.38400079     0.98400
C174        C  0.70420572  0.65668292  0.43745206     1.04300
O175        O  0.71116412  0.69900804  0.37663075    -0.78300
C176        C  0.61249957  0.61665856  0.36588128     1.02600
Fe177      Fe  0.83990930  0.46903626  0.86849985     1.65800
Fe178      Fe  0.85402802  0.38535709  0.90713256     1.73200
Fe179      Fe  0.78443835  0.40140038  0.88651967     1.54400
O180        O  0.76986484  0.46556977  0.89402345    -0.82000
O181        O  0.83736543  0.32407249  0.89741084    -0.80300
O182        O  0.80155945  0.50461204  0.87261498    -0.84500
O183        O  0.82286284  0.44296807  0.83717020    -0.79400
O184        O  0.78184685  0.38580548  0.92186875    -0.81200
O185        O  0.88474804  0.37894771  0.88096029    -0.83900
C186        C  0.79676069  0.42817858  0.83404357     0.96900
C187        C  0.77748578  0.50126128  0.88375086     1.04300
O188        O  0.82616188  0.41815814  0.88720815    -1.12900
O189        O  0.87321593  0.44278912  0.92001484    -0.75300
O190        O  0.85530489  0.49939603  0.89904930    -0.78800
O191        O  0.78108579  0.41389992  0.85094667    -0.79500
C192        C  0.86819377  0.48402664  0.91721748     0.95800
O193        O  0.88129686  0.44204936  0.86099482    -0.77500
O194        O  0.82723490  0.38707678  0.93608466    -0.82600
C195        C  0.81466119  0.31004944  0.88671087     0.98400
C196        C  0.79978103  0.38246891  0.93882732     1.04300
O197        O  0.79462362  0.33583772  0.87904625    -0.78300
C198        C  0.89478328  0.40628798  0.86611633     1.02600
Fe199      Fe  0.66712844  0.11252286  0.13184879     1.65800
Fe200      Fe  0.65741378  0.20915360  0.10202413     1.73200
Fe201      Fe  0.72382615  0.18490812  0.12528571     1.54400
O202        O  0.71926010  0.17748204  0.16095762    -0.82000
O203        O  0.69102775  0.23111453  0.08082849    -0.80300
O204        O  0.68975584  0.11823983  0.16405622    -0.84500
O205        O  0.70132672  0.07565886  0.11811512    -0.79400
O206        O  0.71405534  0.25257209  0.12842817    -0.81200
O207        O  0.64853928  0.15992973  0.07796182    -0.83900
C208        C  0.72886354  0.08187581  0.11928881     0.96900
C209        C  0.70858840  0.14530902  0.17267601     1.04300
O210        O  0.68273014  0.16881324  0.11996410    -1.12900
O211        O  0.61955951  0.19370756  0.12045545    -0.75300
O212        O  0.63077640  0.14284682  0.14707400    -0.78800
O213        O  0.73990166  0.12001480  0.12312913    -0.79500
C214        C  0.61272521  0.17034513  0.13816172     0.95800
O215        O  0.64423492  0.09937132  0.10041517    -0.77500
O216        O  0.66566620  0.26216226  0.12430115    -0.82600
C217        C  0.71760730  0.22059701  0.07699460     0.98400
C218        C  0.69123246  0.27729011  0.12876850     1.04300
O219        O  0.73163482  0.19336548  0.08980523    -0.78300
C220        C  0.64177748  0.11928123  0.08063676     1.02600
Fe221      Fe  0.16594759  0.42388728  0.87545062     1.65800
Fe222      Fe  0.15669033  0.32766196  0.90638192     1.73200
Fe223      Fe  0.22356974  0.35239115  0.88343665     1.54400
O224        O  0.21918534  0.35932430  0.84775192    -0.82000
O225        O  0.19010658  0.30806205  0.92819448    -0.80300
O226        O  0.18360491  0.40997282  0.84164528    -0.84500
O227        O  0.20204413  0.46188174  0.88326936    -0.79400
O228        O  0.21426619  0.28483248  0.88065559    -0.81200
O229        O  0.14644334  0.37765867  0.92978658    -0.83900
C230        C  0.22942813  0.45518517  0.88470172     0.96900
C231        C  0.20401228  0.38384189  0.83414256     1.04300
O232        O  0.18196860  0.36825117  0.88819113    -1.12900
O233        O  0.11861117  0.33914541  0.88796415    -0.75300
O234        O  0.12618110  0.39699952  0.86474367    -0.78800
O235        O  0.24034004  0.41643541  0.88532880    -0.79500
C236        C  0.10988048  0.36622585  0.87250520     0.95800
O237        O  0.14917059  0.44120412  0.90913597    -0.77500
O238        O  0.16606779  0.27457972  0.88466441    -0.82600
C239        C  0.21655838  0.31868287  0.93219894     0.98400
C240        C  0.19175250  0.25966350  0.88066643     1.04300
O241        O  0.23104820  0.34461405  0.91897001    -0.78300
C242        C  0.14458852  0.41977576  0.92835658     1.02600
Fe243      Fe  0.34341129  0.06595301  0.13550407     1.65800
Fe244      Fe  0.35472131  0.15939728  0.10299341     1.73200
Fe245      Fe  0.28635766  0.13690054  0.12534998     1.54400
O246        O  0.27065115  0.07413948  0.11685838    -0.82000
O247        O  0.33946163  0.21768341  0.11806975    -0.80300
O248        O  0.30518592  0.03018358  0.13163629    -0.84500
O249        O  0.32934595  0.08497771  0.16891088    -0.79400
O250        O  0.28065878  0.15551673  0.09087317    -0.81200
O251        O  0.38785169  0.15843040  0.12757366    -0.83900
C252        C  0.30483107  0.10242815  0.17499874     0.96900
C253        C  0.27967821  0.03625747  0.12341527     1.04300
O254        O  0.32811336  0.12111088  0.12139194    -1.12900
O255        O  0.37221015  0.10544907  0.08482312    -0.75300
O256        O  0.35665512  0.04377453  0.10256017    -0.78800
O257        O  0.28731021  0.12051014  0.16044369    -0.79500
C258        C  0.36832524  0.06348071  0.08506218     0.95800
O259        O  0.38516144  0.09039740  0.14228235    -0.77500
O260        O  0.32542170  0.16690332  0.07594417    -0.82600
C261        C  0.31611222  0.22937501  0.12879353     0.98400
C262        C  0.29764062  0.16729596  0.07430719     1.04300
O263        O  0.29583840  0.20207840  0.13410396    -0.78300
C264        C  0.39884132  0.12651163  0.13902924     1.02600
Fe265      Fe  0.34040883  0.92297336  0.87426504     1.65800
Fe266      Fe  0.34830556  0.82651907  0.90511213     1.73200
Fe267      Fe  0.28286707  0.85114364  0.87995699     1.54400
O268        O  0.26654980  0.91571484  0.88168535    -0.82000
O269        O  0.33997015  0.77262598  0.88350596    -0.80300
O270        O  0.30509464  0.96022500  0.88508520    -0.84500
O271        O  0.32096314  0.91408754  0.84100317    -0.79400
O272        O  0.27345783  0.84352952  0.91514660    -0.81200
O273        O  0.38668908  0.83863774  0.88677197    -0.83900
C274        C  0.30223913  0.88691742  0.83230786     0.96900
C275        C  0.27757497  0.95403529  0.88451714     1.04300
O276        O  0.32399933  0.86694546  0.88620396    -1.12900
O277        O  0.35785302  0.87671103  0.92850232    -0.75300
O278        O  0.35990973  0.93828571  0.90670071    -0.78800
O279        O  0.28902979  0.85761617  0.84443009    -0.79500
C280        C  0.36283555  0.91810135  0.92630432     0.95800
O281        O  0.37890872  0.89413490  0.86194439    -0.77500
O282        O  0.31393752  0.80790967  0.92672623    -0.82600
C283        C  0.31472096  0.75844055  0.87752532     0.98400
C284        C  0.28724879  0.81904807  0.92953868     1.04300
O285        O  0.29226346  0.78371232  0.87718334    -0.78300
C286        C  0.39547559  0.86435354  0.87055552     1.02600
Fe287      Fe  0.16460598  0.57135607  0.13836641     1.65800
Fe288      Fe  0.15724480  0.65754398  0.10068092     1.73200
Fe289      Fe  0.22425808  0.63228484  0.12310948     1.54400
O290        O  0.22481969  0.61689557  0.15856985    -0.82000
O291        O  0.18450439  0.64990879  0.07243739    -0.80300
O292        O  0.17995898  0.59667601  0.17052064    -0.84500
O293        O  0.20170716  0.53151189  0.13609700    -0.79400
O294        O  0.21732398  0.69805476  0.13177597    -0.81200
O295        O  0.13403997  0.60302666  0.08766323    -0.83900
C296        C  0.22588292  0.53237700  0.12489498     0.96900
C297        C  0.20644326  0.60869912  0.17490663     1.04300
O298        O  0.18204652  0.62085086  0.12089935    -1.12900
O299        O  0.12697389  0.66897611  0.12679496    -0.75300
O300        O  0.12353547  0.60224705  0.14311050    -0.78800
O301        O  0.23531385  0.56725704  0.11479222    -0.79500
C302        C  0.11281826  0.64042733  0.13858952     0.95800
O303        O  0.15091149  0.54343385  0.10666858    -0.77500
O304        O  0.17835351  0.71659989  0.11010743    -0.82600
C305        C  0.21196254  0.65576837  0.07062703     0.98400
C306        C  0.20076854  0.72707172  0.12236666     1.04300
O307        O  0.22917788  0.65111182  0.08805075    -0.78300
C308        C  0.13857457  0.56127320  0.08887499     1.02600
Fe309      Fe  0.66597267  0.96952603  0.87222278     1.65800
Fe310      Fe  0.65789872  0.87710461  0.90562166     1.73200
Fe311      Fe  0.72574712  0.90727544  0.88496717     1.54400
O312        O  0.72506498  0.92274571  0.84950545    -0.82000
O313        O  0.68634215  0.87476130  0.93341669    -0.80300
O314        O  0.68030796  0.94788640  0.83912375    -0.84500
O315        O  0.70273302  0.00889463  0.87421492    -0.79400
O316        O  0.72031712  0.84069938  0.87672536    -0.81200
O317        O  0.63724885  0.93016066  0.92256138    -0.83900
C318        C  0.72671120  0.00789184  0.88533095     0.96900
C319        C  0.70656433  0.93541102  0.83405226     1.04300
O320        O  0.68324694  0.91716872  0.88734393    -1.12900
O321        O  0.62573075  0.87304132  0.88021789    -0.75300
O322        O  0.62457589  0.94220386  0.86721968    -0.78800
O323        O  0.73678242  0.97204401  0.89377296    -0.79500
C324        C  0.61244881  0.90477449  0.87024969     0.95800
O325        O  0.65389893  0.99235312  0.90546468    -0.77500
O326        O  0.67689370  0.82028903  0.89182828    -0.82600
C327        C  0.71373258  0.87954273  0.93638608     0.98400
C328        C  0.70147740  0.81118881  0.88223204     1.04300
O329        O  0.73095302  0.89133334  0.91995517    -0.78300
C330        C  0.64276794  0.97169919  0.92295812     1.02600
Fe331      Fe  0.83831850  0.60918367  0.12749131     1.65800
Fe332      Fe  0.84955594  0.71144270  0.10320433     1.73200
Fe333      Fe  0.78293904  0.68444487  0.12504690     1.54400
O334        O  0.76567909  0.62022414  0.12312476    -0.82000
O335        O  0.84019448  0.76137211  0.12723951    -0.80300
O336        O  0.80275544  0.57608919  0.11349479    -0.84500
O337        O  0.81718205  0.61311830  0.16074770    -0.79400
O338        O  0.77512591  0.69472119  0.08976672    -0.81200
O339        O  0.88685825  0.69472765  0.12203242    -0.83900
C340        C  0.79978650  0.64106227  0.17078951     0.96900
C341        C  0.77567510  0.58235476  0.11734243     1.04300
O342        O  0.82389864  0.66819685  0.11879053    -1.12900
O343        O  0.86006784  0.66635223  0.07723220    -0.75300
O344        O  0.85862504  0.59975496  0.09462947    -0.78800
O345        O  0.78954264  0.67503216  0.16022265    -0.79500
C346        C  0.86333775  0.62441787  0.07670752     0.95800
O347        O  0.87688596  0.63325140  0.14225180    -0.77500
O348        O  0.81587324  0.73385238  0.08214416    -0.82600
C349        C  0.81441087  0.77696114  0.12995064     0.98400
C350        C  0.78961924  0.72246332  0.07749302     1.04300
O351        O  0.79191679  0.75201093  0.12852889    -0.78300
C352        C  0.89413247  0.66471173  0.13657916     1.02600
C353        C  0.71963035  0.84355597  0.99991747    -0.11700
C354        C  0.74754441  0.82398478  0.99973468     0.14800
C355        C  0.76593377  0.82869679  0.97990385     0.01700
C356        C  0.75509072  0.85013177  0.95995755    -0.16100
C357        C  0.72627047  0.86724515  0.95943350    -0.10900
C358        C  0.70897495  0.86581558  0.98020390     0.08400
C359        C  0.75644006  0.79773981  0.02025880     0.09500
S360        S  0.80284809  0.80651849  0.97860187    -0.25200
H361        H  0.76889251  0.85156760  0.94440514     0.19700
S362        S  0.67324423  0.89147336  0.98289787    -0.30900
H363        H  0.70591152  0.84097946  0.01549528     0.10000
C364        C  0.76524551  0.81876377  0.04117229     0.03200
C365        C  0.77481205  0.79268087  0.05992496    -0.13200
C366        C  0.77555846  0.74612997  0.05817084    -0.08900
C367        C  0.76593396  0.72497339  0.03746224     0.06700
C368        C  0.75623299  0.75113949  0.01868781    -0.14000
S369        S  0.76558240  0.87871689  0.04360180    -0.30900
H370        H  0.78246149  0.80855595  0.07591102     0.10900
S371        S  0.76671778  0.66542649  0.03355466    -0.28000
H372        H  0.74920403  0.73523653  0.00252980     0.08200
H373        H  0.68040297  0.92778145  0.96853641     0.26600
H374        H  0.77502030  0.88079218  0.06713833     0.21400
H375        H  0.79162511  0.65736638  0.04756328     0.26700
H376        H  0.80871672  0.80951596  0.00281809     0.15600
C377        C  0.97190068  0.70125069  0.15213850    -0.11700
C378        C  0.98697990  0.66050530  0.15056773     0.14800
C379        C  0.97049433  0.62096930  0.14802541     0.01700
C380        C  0.93977959  0.62319565  0.14601821    -0.16100
C381        C  0.92491025  0.66421743  0.14548033    -0.10900
C382        C  0.94121448  0.70357902  0.14953217     0.08400
C383        C  0.01976819  0.66043816  0.14939534     0.09500
S384        S  0.98742825  0.56691640  0.14524683    -0.25200
H385        H  0.92769907  0.59273038  0.14282977     0.19700
S386        S  0.92429059  0.75778924  0.15115922    -0.30900
H387        H  0.98429818  0.73169305  0.15449712     0.10000
C388        C  0.03449428  0.67866681  0.12978584     0.03200
C389        C  0.06508664  0.67398378  0.12778158    -0.13200
C390        C  0.08164748  0.65080048  0.14469727    -0.08900
C391        C  0.06706760  0.63443701  0.16493481     0.06700
C392        C  0.03635390  0.63928625  0.16702299    -0.14000
S393        S  0.01416592  0.70468464  0.10616415    -0.30900
H394        H  0.07596205  0.68626376  0.11212551     0.10900
S395        S  0.08633221  0.60761270  0.18869841    -0.28000
H396        H  0.02520058  0.62573482  0.18227444     0.08200
H397        H  0.89724148  0.74254243  0.16013281     0.26600
H398        H  0.03851753  0.71611639  0.09210751     0.21400
H399        H  0.11252436  0.63198003  0.18591833     0.26700
H400        H  0.01154156  0.58115817  0.13167147     0.15600
C401        C  0.46942571  0.88864230  0.84092110    -0.11700
C402        C  0.48886473  0.87094924  0.85763487     0.14800
C403        C  0.47738394  0.84645510  0.87670843     0.01700
C404        C  0.44694404  0.84166302  0.87915402    -0.16100
C405        C  0.42711036  0.86171615  0.86334090    -0.10900
C406        C  0.43880983  0.88355780  0.84328001     0.08400
C407        C  0.52071660  0.88136276  0.85612458     0.09500
S408        S  0.50025672  0.82239013  0.89933098    -0.25200
H409        H  0.43878681  0.82441287  0.89455643     0.19700
S410        S  0.41614516  0.90511770  0.81993950    -0.30900
H411        H  0.47817604  0.90685375  0.82603984     0.10000
C412        C  0.54188846  0.84872258  0.85046806     0.03200
C413        C  0.57191774  0.85765379  0.85421550    -0.13200
C414        C  0.58118302  0.89876450  0.86339712    -0.08900
C415        C  0.55976824  0.93204636  0.86797872     0.06700
C416        C  0.53000335  0.92322245  0.86389965    -0.14000
S417        S  0.53046311  0.79536815  0.83916549    -0.30900
H418        H  0.58818369  0.83218526  0.85058074     0.10900
S419        S  0.56838147  0.98456662  0.88163600    -0.28000
H420        H  0.51370293  0.94811902  0.86855426     0.08200
H421        H  0.39560478  0.87015822  0.82097189     0.26600
H422        H  0.55883125  0.77703117  0.83688358     0.21400
H423        H  0.58566800  0.96538385  0.89944108     0.26700
H424        H  0.52131857  0.85653756  0.89987291     0.15600
C425        C  0.26237652  0.70201260  0.02293374    -0.11700
C426        C  0.24193035  0.72622529  0.00958866     0.14800
C427        C  0.21172719  0.72269633  0.01481117     0.01700
C428        C  0.20269130  0.69630677  0.03359693    -0.16100
C429        C  0.22310113  0.67375213  0.04795543    -0.10900
C430        C  0.25331531  0.67549269  0.04186907     0.08400
C431        C  0.25236464  0.75255447  0.98933591     0.09500
S432        S  0.18362027  0.75239031  0.99878154    -0.25200
H433        H  0.17940572  0.69568125  0.03776075     0.19700
S434        S  0.28121546  0.64388828  0.05692915    -0.30900
H435        H  0.28554044  0.70344619  0.01837254     0.10000
C436        C  0.26926507  0.79147147  0.99230460     0.03200
C437        C  0.27912365  0.81458747  0.97237154    -0.13200
C438        C  0.27175396  0.79998583  0.94971210    -0.08900
C439        C  0.25406205  0.76187133  0.94687099     0.06700
C440        C  0.24486495  0.73829274  0.96666111    -0.14000
S441        S  0.27820094  0.81165063  0.02136960    -0.30900
H442        H  0.29317312  0.84341724  0.97433779     0.10900
S443        S  0.24460073  0.73967317  0.91840994    -0.28000
H444        H  0.23191262  0.70834467  0.96439770     0.08200
H445        H  0.26309365  0.60663523  0.06071721     0.26600
H446        H  0.29450059  0.84894601  0.01409016     0.21400
H447        H  0.23852907  0.78104626  0.90806628     0.26700
H448        H  0.20085840  0.78994700  0.99363312     0.15600
C449        C  0.36839090  0.97631768  0.03592770    -0.11700
C450        C  0.38202166  0.99973779  0.01753099     0.14800
C451        C  0.39440439  0.04177924  0.02247872     0.01700
C452        C  0.39091826  0.06057293  0.04490511    -0.16100
C453        C  0.37620304  0.03795294  0.06322317    -0.10900
C454        C  0.36632935  0.99397072  0.05871089     0.08400
C455        C  0.38093363  0.98075182  0.99322944     0.09500
S456        S  0.41471430  0.07341946  0.00094404    -0.25200
H457        H  0.39946915  0.09370278  0.04785807     0.19700
S458        S  0.35025460  0.95849621  0.08076369    -0.30900
H459        H  0.35888871  0.94395624  0.03244902     0.10000
C460        C  0.39147995  0.93762744  0.98811437     0.03200
C461        C  0.38641015  0.91901357  0.96581400    -0.13200
C462        C  0.37186806  0.94285679  0.94794922    -0.08900
C463        C  0.36365077  0.98751884  0.95257589     0.06700
C464        C  0.36745857  0.00532921  0.97519216    -0.14000
S465        S  0.41164040  0.90613294  0.00985566    -0.30900
H466        H  0.39345253  0.88521409  0.96238642     0.10900
S467        S  0.34674819  0.02288953  0.93098307    -0.28000
H468        H  0.35939536  0.03856085  0.97886165     0.08200
H469        H  0.37351808  0.96506732  0.09672354     0.26600
H470        H  0.41896819  0.86993352  0.99527230     0.21400
H471        H  0.37041216  0.01874464  0.91510842     0.26700
H472        H  0.42541417  0.03639646  0.98841465     0.15600
C473        C  0.23656361  0.93429132  0.10431677    -0.11700
C474        C  0.23137848  0.91410736  0.12622867     0.14800
C475        C  0.23930651  0.93691210  0.14696631     0.01700
C476        C  0.25341605  0.97811413  0.14532050    -0.16100
C477        C  0.25967434  0.99759156  0.12342365    -0.10900
C478        C  0.25048784  0.97584042  0.10268498     0.08400
C479        C  0.22256124  0.86665227  0.12667520     0.09500
S480        S  0.23413990  0.91377741  0.17595241    -0.25200
H481        H  0.26064354  0.99443671  0.16131614     0.19700
S482        S  0.25897573  0.99663504  0.07374757    -0.30900
H483        H  0.23103339  0.91651291  0.08833501     0.10000
C484        C  0.19292303  0.85302923  0.12593217     0.03200
C485        C  0.18621780  0.80731979  0.12514893    -0.13200
C486        C  0.20864992  0.77491288  0.12483185    -0.08900
C487        C  0.23840046  0.78923498  0.12538114     0.06700
C488        C  0.24487931  0.83457314  0.12675877    -0.14000
S489        S  0.16380404  0.89391688  0.12608831    -0.30900
H490        H  0.16345410  0.79677922  0.12460866     0.10900
S491        S  0.26932544  0.75203021  0.12225221    -0.28000
H492        H  0.26768842  0.84513554  0.12693716     0.08200
H493        H  0.25389325  0.04153907  0.07916931     0.26600
H494        H  0.14031883  0.86368419  0.12425667     0.21400
H495        H  0.25703027  0.72876546  0.10316556     0.26700
H496        H  0.20985698  0.88697544  0.17032842     0.15600
C497        C  0.28719071  0.44779069  0.13390988    -0.11700
C498        C  0.27301404  0.40840369  0.12713886     0.14800
C499        C  0.24399272  0.41051341  0.11833883     0.01700
C500        C  0.22943862  0.45151560  0.11732701    -0.16100
C501        C  0.24340273  0.49093781  0.12436940    -0.10900
C502        C  0.27263779  0.48890535  0.13280129     0.08400
C503        C  0.28842451  0.36529669  0.13007503     0.09500
S504        S  0.22422559  0.36199778  0.10842584    -0.25200
H505        H  0.20695687  0.45270186  0.11099903     0.19700
S506        S  0.29174940  0.53697734  0.14390896    -0.30900
H507        H  0.30939536  0.44626439  0.14079224     0.10000
C508        C  0.30954395  0.35072725  0.11363992     0.03200
C509        C  0.32057156  0.30721803  0.11513574    -0.13200
C510        C  0.31064922  0.27760478  0.13261060    -0.08900
C511        C  0.29130606  0.29376668  0.15022200     0.06700
C512        C  0.28018043  0.33715458  0.14860901    -0.14000
S513        S  0.32041920  0.38622736  0.08953360    -0.30900
H514        H  0.33531146  0.29526034  0.10154095     0.10900
S515        S  0.27976677  0.26068765  0.17498939    -0.28000
H516        H  0.26438356  0.34873716  0.16155590     0.08200
H517        H  0.26723613  0.55458029  0.15585320     0.26600
H518        H  0.33860898  0.35516887  0.07800635     0.21400
H519        H  0.30580359  0.23534667  0.17605242     0.26700
H520        H  0.24893367  0.33881855  0.09989764     0.15600
C521        C  0.21849193  0.04121055  0.87231801    -0.11700
C522        C  0.23034338  0.07792004  0.88417707     0.14800
C523        C  0.25537321  0.07202331  0.89849760     0.01700
C524        C  0.26907510  0.03045811  0.89935691    -0.16100
C525        C  0.25834867  0.99395122  0.88652241    -0.10900
C526        C  0.23201885  0.99929522  0.87345745     0.08400
C527        C  0.21758773  0.12256012  0.88010906     0.09500
S528        S  0.27195165  0.11671267  0.91505282    -0.25200
H529        H  0.28891789  0.02693999  0.90970164     0.19700
S530        S  0.21617139  0.95542267  0.85607396    -0.30900
H531        H  0.19914484  0.04563188  0.86141867     0.10000
C532        C  0.23159617  0.15342335  0.86522281     0.03200
C533        C  0.22109902  0.19726847  0.86418516    -0.13200
C534        C  0.19679249  0.21111007  0.87773282    -0.08900
C535        C  0.18181066  0.17905315  0.89159598     0.06700
C536        C  0.19238128  0.13531625  0.89261041    -0.14000
S537        S  0.26361993  0.13736129  0.84830242    -0.30900
H538        H  0.23271170  0.22146065  0.85357799     0.10900
S539        S  0.15129695  0.19270963  0.91052788    -0.28000
H540        H  0.18167785  0.11152031  0.90409126     0.08200
H541        H  0.21229005  0.92725735  0.87558682     0.26600
H542        H  0.26881100  0.17910273  0.83795994     0.21400
H543        H  0.13380405  0.20816087  0.89183392     0.26700
H544        H  0.24608109  0.14154473  0.91850235     0.15600
C545        C  0.29028244  0.53782497  0.86947079    -0.11700
C546        C  0.28011431  0.57590129  0.88124962     0.14800
C547        C  0.25481606  0.57282114  0.89558900     0.01700
C548        C  0.23935739  0.53283536  0.89682212    -0.16100
C549        C  0.24890469  0.49476182  0.88471548    -0.10900
C550        C  0.27485507  0.49744145  0.87088162     0.08400
C551        C  0.29355188  0.61976896  0.87618125     0.09500
S552        S  0.24036241  0.61934614  0.91201077    -0.25200
H553        H  0.21922244  0.53186109  0.90693479     0.19700
S554        S  0.28762688  0.45226218  0.85264871    -0.30900
H555        H  0.30938973  0.54023413  0.85810469     0.10000
C556        C  0.31919748  0.63440487  0.88764081     0.03200
C557        C  0.32738023  0.67939398  0.88601968    -0.13200
C558        C  0.31028265  0.71005177  0.87319357    -0.08900
C559        C  0.28627840  0.69396458  0.85978756     0.06700
C560        C  0.27815835  0.64913123  0.86156332    -0.14000
S561        S  0.33988832  0.59670210  0.90597204    -0.30900
H562        H  0.34586857  0.69127846  0.89621117     0.10900
S563        S  0.26521965  0.73017734  0.84080389    -0.28000
H564        H  0.25879173  0.63720960  0.85246766     0.08200
H565        H  0.25952910  0.44152971  0.84397157     0.26600
H566        H  0.36217340  0.62688549  0.91222494     0.21400
H567        H  0.24731835  0.69715585  0.83072761     0.26700
H568        H  0.26774630  0.63934762  0.91642546     0.15600
C569        C  0.15450958  0.49146578  0.98318678    -0.11700
C570        C  0.13127196  0.47681533  0.99752948     0.14800
C571        C  0.11079911  0.44629303  0.98803314     0.01700
C572        C  0.11451405  0.43050237  0.96486062    -0.16100
C573        C  0.13846767  0.44394346  0.95079356    -0.10900
C574        C  0.15866860  0.47478910  0.96034300     0.08400
C575        C  0.13003864  0.49305739  0.02241873     0.09500
S576        S  0.08018210  0.42486331  0.00476745    -0.25200
H577        H  0.09918119  0.40613736  0.95804721     0.19700
S578        S  0.19172564  0.49128285  0.94525962    -0.30900
H579        H  0.17042027  0.51465966  0.99030308     0.10000
C580        C  0.15131165  0.47970908  0.03908038     0.03200
C581        C  0.15190157  0.49980434  0.06145748    -0.13200
C582        C  0.13176865  0.53343481  0.06773149    -0.08900
C583        C  0.10906878  0.54422137  0.05159348     0.06700
C584        C  0.10863250  0.52433575  0.02916077    -0.14000
S585        S  0.17831497  0.43777170  0.03161367    -0.30900
H586        H  0.16929732  0.49110965  0.07361460     0.10900
S587        S  0.08006384  0.58312097  0.05851938    -0.28000
H588        H  0.09184628  0.53407726  0.01665937     0.08200
H589        H  0.19801049  0.44923739  0.93562999     0.26600
H590        H  0.19357124  0.43842847  0.05312778     0.21400
H591        H  0.07987563  0.57423558  0.08282607     0.26700
H592        H  0.09361066  0.42764137  0.02696591     0.15600
C593        C  0.25849998  0.29446811  0.98824413    -0.11700
C594        C  0.25429300  0.24826558  0.98984706     0.14800
C595        C  0.23822161  0.22585771  0.97229718     0.01700
C596        C  0.22725151  0.24995625  0.95336052    -0.16100
C597        C  0.23085518  0.29626167  0.95195781    -0.10900
C598        C  0.24651949  0.31885974  0.96964387     0.08400
C599        C  0.26501652  0.22517315  0.01093210     0.09500
S600        S  0.22999591  0.16714259  0.97331699    -0.25200
H601        H  0.21507324  0.23248667  0.93979990     0.19700
S602        S  0.25024748  0.37851911  0.97025558    -0.30900
H603        H  0.27034366  0.31177386  0.00202942     0.10000
C604        C  0.28867010  0.19486418  0.01008434     0.03200
C605        C  0.29819791  0.17479270  0.03095951    -0.13200
C606        C  0.28476425  0.18506746  0.05258097    -0.08900
C607        C  0.26127416  0.21597819  0.05324776     0.06700
C608        C  0.25135320  0.23495432  0.03239697    -0.14000
S609        S  0.30743247  0.18320042  0.98269552    -0.30900
H610        H  0.31652454  0.15175286  0.03056995     0.10900
S611        S  0.24476544  0.23581712  0.08017824    -0.28000
H612        H  0.23342269  0.25875350  0.03296782     0.08200
H613        H  0.22229811  0.38749055  0.96076368     0.26600
H614        H  0.32855746  0.15382994  0.99196779     0.21400
H615        H  0.27184536  0.24269174  0.09153677     0.26700
H616        H  0.22907879  0.16338960  0.99794429     0.15600
C617        C  0.74187826  0.46997901  0.10261997    -0.11700
C618        C  0.72563479  0.46143648  0.12320434     0.14800
C619        C  0.72326448  0.49519577  0.14041198     0.01700
C620        C  0.73831986  0.53547317  0.13729553    -0.16100
C621        C  0.75580042  0.54317105  0.11728261    -0.10900
C622        C  0.75686717  0.51048386  0.09944911     0.08400
C623        C  0.71350217  0.41593106  0.12696591     0.09500
S624        S  0.70220735  0.48830668  0.16708502    -0.25200
H625        H  0.73742736  0.56026889  0.15114223     0.19700
S626        S  0.77706063  0.52046680  0.07257044    -0.30900
H627        H  0.74350219  0.44425416  0.08935606     0.10000
C628        C  0.68968370  0.39957237  0.11367422     0.03200
C629        C  0.68094864  0.35492781  0.11619198    -0.13200
C630        C  0.69558286  0.32603749  0.13175704    -0.08900
C631        C  0.71799546  0.34360663  0.14630592     0.06700
C632        C  0.72687808  0.38798188  0.14358493    -0.14000
S633        S  0.67088432  0.43530933  0.09308094    -0.30900
H634        H  0.66389485  0.34177747  0.10487484     0.10900
S635        S  0.73622682  0.31097226  0.16855028    -0.28000
H636        H  0.74478142  0.40064717  0.15422887     0.08200
H637        H  0.76999468  0.48007086  0.06144089     0.26600
H638        H  0.64812474  0.40545214  0.08751214     0.21400
H639        H  0.71220621  0.28259892  0.17285028     0.26700
H640        H  0.68136195  0.45885953  0.15757490     0.15600
C641        C  0.81721260  0.90300807  0.12100493    -0.11700
C642        C  0.78994041  0.91559394  0.13051550     0.14800
C643        C  0.77299975  0.88360036  0.14258922     0.01700
C644        C  0.78271604  0.83942816  0.14361731    -0.16100
C645        C  0.80916547  0.82575127  0.13283483    -0.10900
C646        C  0.82688625  0.85861492  0.12182069     0.08400
C647        C  0.77799605  0.96059327  0.12540647     0.09500
S648        S  0.73786140  0.89647929  0.15582867    -0.25200
H649        H  0.76877873  0.81506778  0.15217653     0.19700
S650        S  0.86046032  0.84571724  0.10636830    -0.30900
H651        H  0.83024137  0.92744233  0.11162696     0.10000
C652        C  0.78556036  0.99801915  0.13903240     0.03200
C653        C  0.77075702  0.03853338  0.13535343    -0.13200
C654        C  0.74850938  0.04240817  0.11827629    -0.08900
C655        C  0.74271371  0.00565492  0.10344961     0.06700
C656        C  0.75719559  0.96517188  0.10736020    -0.14000
S657        S  0.81239380  0.99321061  0.16226807    -0.30900
H658        H  0.77520710  0.06648782  0.14684342     0.10900
S659        S  0.71714970  0.00823810  0.07927591    -0.28000
H660        H  0.75177748  0.93664879  0.09652804     0.08200
H661        H  0.84709635  0.81361752  0.09188619     0.26600
H662        H  0.81160920  0.03802618  0.16938807     0.21400
H663        H  0.72061216  0.05403182  0.07505215     0.26700
H664        H  0.74417929  0.94106708  0.16120309     0.15600
C665        C  0.61477213  0.09174835  0.01885133    -0.11700
C666        C  0.62724093  0.04953265  0.01550236     0.14800
C667        C  0.64046123  0.02790510  0.03486990     0.01700
C668        C  0.64287601  0.05010709  0.05650482    -0.16100
C669        C  0.63242279  0.09376700  0.05942251    -0.10900
C670        C  0.61684263  0.11376373  0.04057842     0.08400
C671        C  0.62979848  0.03159011  0.99115430     0.09500
S672        S  0.65613952  0.97294088  0.03267913    -0.25200
H673        H  0.65438276  0.03394662  0.07080174     0.19700
S674        S  0.59928008  0.16739223  0.04301964    -0.30900
H675        H  0.60419833  0.10830077  0.00419733     0.10000
C676        C  0.60593793  0.01192585  0.97919516     0.03200
C677        C  0.61030821  0.99388639  0.95653184    -0.13200
C678        C  0.63802358  0.99560116  0.94548725    -0.08900
C679        C  0.66182627  0.01545911  0.95765744     0.06700
C680        C  0.65730520  0.03366366  0.98004045    -0.14000
S681        S  0.57035208  0.00816455  0.99321109    -0.30900
H682        H  0.59227263  0.97775098  0.94751655     0.10900
S683        S  0.69920749  0.01546794  0.94678673    -0.28000
H684        H  0.67573687  0.04833999  0.98929117     0.08200
H685        H  0.59244065  0.16326454  0.06708113     0.26600
H686        H  0.55590237  0.98662275  0.97454262     0.21400
H687        H  0.69771038  0.97489012  0.93462638     0.26700
H688        H  0.63695778  0.95773168  0.01505425     0.15600
C689        C  0.48086043  0.10905128  0.14599936    -0.11700
C690        C  0.48936506  0.14885570  0.15692499     0.14800
C691        C  0.46738028  0.17920420  0.16426850     0.01700
C692        C  0.43774731  0.17034158  0.15922141    -0.16100
C693        C  0.42938078  0.13106124  0.14764771    -0.10900
C694        C  0.45127750  0.09961236  0.14156895     0.08400
C695        C  0.52120740  0.16009937  0.15689498     0.09500
S696        S  0.47580784  0.23020353  0.17952926    -0.25200
H697        H  0.42112375  0.19467347  0.16395071     0.19700
S698        S  0.44322229  0.04961982  0.12535130    -0.30900
H699        H  0.49756328  0.08600718  0.13983327     0.10000
C700        C  0.54228837  0.13273519  0.16787727     0.03200
C701        C  0.57232183  0.13902765  0.16298085    -0.13200
C702        C  0.58191494  0.17254732  0.14744313    -0.08900
C703        C  0.56066009  0.20313546  0.13874266     0.06700
C704        C  0.53073830  0.19583504  0.14307634    -0.14000
S705        S  0.53086127  0.08896183  0.18760713    -0.30900
H706        H  0.58819136  0.11612249  0.17036671     0.10900
S707        S  0.56967962  0.25172059  0.12162459    -0.28000
H708        H  0.51461801  0.21748598  0.13493192     0.08200
H709        H  0.42494596  0.03234439  0.14311948     0.26600
H710        H  0.55925120  0.07490597  0.19409714     0.21400
H711        H  0.59431961  0.26285108  0.13539661     0.26700
H712        H  0.50230396  0.21516069  0.18952060     0.15600
C713        C  0.89961232  0.52747784  0.97472729    -0.11700
C714        C  0.87658749  0.55531704  0.98217509     0.14800
C715        C  0.85358546  0.56523684  0.96629998     0.01700
C716        C  0.85299893  0.54467720  0.94414866    -0.16100
C717        C  0.87486505  0.51413931  0.93728915    -0.10900
C718        C  0.89909466  0.50703175  0.95249969     0.08400
C719        C  0.87562369  0.57013589  0.00716066     0.09500
S720        S  0.82309218  0.60104461  0.97392407    -0.25200
H721        H  0.83415928  0.55027769  0.93285281     0.19700
S722        S  0.92960574  0.47135738  0.94483478    -0.30900
H723        H  0.91756840  0.52029615  0.98666301     0.10000
C724        C  0.85744679  0.54855415  0.02372250     0.03200
C725        C  0.85529020  0.56532468  0.04675158    -0.13200
C726        C  0.87082305  0.60352229  0.05366996    -0.08900
C727        C  0.89030991  0.62367197  0.03736846     0.06700
C728        C  0.89253300  0.60667874  0.01432957    -0.14000
S729        S  0.83634865  0.50022307  0.01530853    -0.30900
H730        H  0.84032149  0.54984794  0.05910823     0.10900
S731        S  0.91278996  0.67053822  0.04586396    -0.28000
H732        H  0.90688648  0.62250559  0.00162839     0.08200
H733        H  0.92713914  0.47750067  0.92037673     0.26600
H734        H  0.82652181  0.48918910  0.03803501     0.21400
H735        H  0.92831525  0.67457328  0.02453410     0.26700
H736        H  0.83837035  0.62755511  0.99018167     0.15600
C737        C  0.74301729  0.70202330  0.88588630    -0.11700
C738        C  0.72125735  0.67148626  0.87950755     0.14800
C739        C  0.69334362  0.68710927  0.87232537     0.01700
C740        C  0.68770759  0.73304588  0.87233767    -0.16100
C741        C  0.70937903  0.76371540  0.87929308    -0.10900
C742        C  0.73740368  0.74759593  0.88609534     0.08400
C743        C  0.72965427  0.62402594  0.87972434     0.09500
S744        S  0.66413619  0.65064316  0.86287600    -0.25200
H745        H  0.66611670  0.74490823  0.86725604     0.19700
S746        S  0.76630417  0.78281608  0.89712782    -0.30900
H747        H  0.76449525  0.69006411  0.89125545     0.10000
C748        C  0.74126491  0.60395890  0.85940288     0.03200
C749        C  0.75543803  0.56282143  0.86125925    -0.13200
C750        C  0.75772799  0.54050435  0.88294058    -0.08900
C751        C  0.74421611  0.55936831  0.90299795     0.06700
C752        C  0.73076535  0.60127586  0.90128247    -0.14000
S753        S  0.73999204  0.63230948  0.83141028    -0.30900
H754        H  0.76594087  0.54879048  0.84582334     0.10900
S755        S  0.74609893  0.53372597  0.93146786    -0.28000
H756        H  0.72209956  0.61704785  0.91700140     0.08200
H757        H  0.74756774  0.80493024  0.91297566     0.26600
H758        H  0.75270951  0.59799851  0.81793892     0.21400
H759        H  0.73195905  0.49498925  0.92350443     0.26700
H760        H  0.67463080  0.61148380  0.87336842     0.15600
C761        C  0.74628625  0.13044306  0.88435016    -0.11700
C762        C  0.77700146  0.12872664  0.88277241     0.14800
C763        C  0.79140681  0.08720801  0.88453499     0.01700
C764        C  0.77460991  0.04828437  0.88685052    -0.16100
C765        C  0.74364892  0.04987426  0.88726349    -0.10900
C766        C  0.72953308  0.09197515  0.88679455     0.08400
C767        C  0.79269827  0.17173612  0.88119232     0.09500
S768        S  0.83089198  0.08155364  0.88320718    -0.25200
H769        H  0.78578699  0.01642944  0.88721341     0.19700
S770        S  0.69029778  0.09975458  0.88967233    -0.30900
H771        H  0.73521192  0.16241611  0.88396413     0.10000
C772        C  0.78829731  0.20052688  0.86193387     0.03200
C773        C  0.79708122  0.24512026  0.86363637    -0.13200
C774        C  0.81036463  0.26147975  0.88418099    -0.08900
C775        C  0.81645012  0.23157970  0.90284170     0.06700
C776        C  0.80782744  0.18710288  0.90100811    -0.14000
S777        S  0.77055531  0.18072783  0.83550678    -0.30900
H778        H  0.79268730  0.26772916  0.84924667     0.10900
S779        S  0.83191609  0.24881961  0.93056908    -0.28000
H780        H  0.81088439  0.16514249  0.91591861     0.08200
H781        H  0.68643091  0.06507711  0.90579596     0.26600
H782        H  0.77371390  0.22010102  0.82240583     0.21400
H783        H  0.81266492  0.28515390  0.93324340     0.26700
H784        H  0.83603664  0.11963151  0.86949181     0.15600
C785        C  0.03825496  0.38069637  0.83827749    -0.11700
C786        C  0.01761267  0.37451897  0.85642102     0.14800
C787        C  0.02755311  0.36122187  0.87885716     0.01700
C788        C  0.05763090  0.35553265  0.88284696    -0.16100
C789        C  0.07854858  0.36416646  0.86520007    -0.10900
C790        C  0.06857627  0.37542345  0.84238938     0.08400
C791        C  0.98587546  0.38304877  0.85217102     0.09500
S792        S  0.00308980  0.35317153  0.90355468    -0.25200
H793        H  0.06483652  0.34699290  0.90045251     0.19700
S794        S  0.09328025  0.38248716  0.81782733    -0.30900
H795        H  0.03069869  0.39004994  0.82089321     0.10000
C796        C  0.97458393  0.42674959  0.85180914     0.03200
C797        C  0.94406344  0.43360285  0.85383389    -0.13200
C798        C  0.92460439  0.39755898  0.85629382    -0.08900
C799        C  0.93587156  0.35381071  0.85387742     0.06700
C800        C  0.96630691  0.34706475  0.85214014    -0.14000
S801        S  0.99920971  0.47383705  0.85144584    -0.30900
H802        H  0.93567019  0.46716784  0.85558770     0.10900
S803        S  0.91270446  0.30514149  0.85378319    -0.28000
H804        H  0.97491967  0.31342621  0.85194350     0.08200
H805        H  0.11445208  0.35188119  0.82585352     0.26600
H806        H  0.97735995  0.50675473  0.84922285     0.21400
H807        H  0.88810731  0.32669018  0.84396809     0.26700
H808        H  0.98397008  0.38847807  0.89811642     0.15600
C809        C  0.74934087  0.34743506  0.98883365    -0.11700
C810        C  0.76922042  0.32412213  0.00306480     0.14800
C811        C  0.79947019  0.32503801  0.99768517     0.01700
C812        C  0.80894500  0.34664727  0.97733980    -0.16100
C813        C  0.78895819  0.36841244  0.96230666    -0.10900
C814        C  0.75891428  0.37043257  0.96891462     0.08400
C815        C  0.75752325  0.29760428  0.02274652     0.09500
S816        S  0.82691683  0.29828450  0.01570834    -0.25200
H817        H  0.83212423  0.34487792  0.97283979     0.14900
S818        S  0.73179913  0.40223756  0.95312677    -0.30900
H819        H  0.72609749  0.34751459  0.99325824     0.10000
C820        C  0.74361947  0.31824948  0.04202285     0.03200
C821        C  0.73136156  0.29182011  0.05963725    -0.13200
C822        C  0.73283676  0.24525552  0.05844313    -0.08900
C823        C  0.74713890  0.22444536  0.03944074     0.06700
C824        C  0.75937274  0.25095713  0.02164480    -0.14000
S825        S  0.74191913  0.37815644  0.04448462    -0.30900
H826        H  0.72050338  0.30742218  0.07450594     0.10900
S827        S  0.74825633  0.16457254  0.03719815    -0.28000
H828        H  0.76994233  0.23552170  0.00661455     0.08200
H829        H  0.75137296  0.43727705  0.94840319     0.26600
H830        H  0.72394133  0.37968640  0.06465269     0.21400
H831        H  0.76208206  0.16265518  0.01504970     0.26700
H832        H  0.81185977  0.30369255  0.03716585     0.15600
C833        C  0.79033529  0.60285433  0.23487893    -0.11700
C834        C  0.76172939  0.61852636  0.23965702     0.14800
C835        C  0.74647388  0.64189867  0.22199263     0.01700
C836        C  0.75963776  0.64814622  0.20003748    -0.16100
C837        C  0.78837077  0.63300248  0.19505403    -0.10900
C838        C  0.80387592  0.61003405  0.21289745     0.08400
C839        C  0.74907900  0.61331402  0.26364626     0.09500
S840        S  0.71019483  0.66514442  0.22632840    -0.25200
H841        H  0.74706400  0.66534504  0.18663062     0.19700
S842        S  0.84116277  0.59078622  0.20917450    -0.30900
H843        H  0.80242416  0.58566617  0.24856944     0.10000
C844        C  0.72535897  0.58450746  0.26847635     0.03200
C845        C  0.71270675  0.58396576  0.29114521    -0.13200
C846        C  0.72332192  0.61160503  0.30925884    -0.08900
C847        C  0.74725969  0.64067744  0.30408198     0.06700
C848        C  0.75972444  0.64083807  0.28149352    -0.14000
S849        S  0.71163534  0.54789331  0.24583003    -0.30900
H850        H  0.69486867  0.56117734  0.29489231     0.10900
S851        S  0.76176139  0.67972810  0.32537895    -0.28000
H852        H  0.77746661  0.66360831  0.27738119     0.08200
H853        H  0.85047097  0.62822109  0.19634305     0.26600
H854        H  0.68829828  0.52990250  0.25902344     0.21400
H855        H  0.78701509  0.69240322  0.31270589     0.26700
H856        H  0.71382980  0.67622134  0.25016738     0.15600
C857        C  0.77366740  0.87141811  0.73940913    -0.11700
C858        C  0.76071972  0.91335304  0.74297268     0.14800
C859        C  0.76485361  0.94680520  0.72587044     0.01700
C860        C  0.78106168  0.93736862  0.70547139    -0.16100
C861        C  0.79248502  0.89465795  0.70121479    -0.10900
C862        C  0.78948258  0.86177920  0.71878878     0.08400
C863        C  0.74466036  0.92205627  0.76532136     0.09500
S864        S  0.74868509  0.00142256  0.72842367    -0.25200
H865        H  0.78282178  0.96269867  0.69199434     0.19700
S866        S  0.80569244  0.80726781  0.71603475    -0.30900
H867        H  0.77139827  0.84602804  0.75279544     0.10000
C868        C  0.71694171  0.90286849  0.77018425     0.03200
C869        C  0.70353580  0.91003700  0.79224847    -0.13200
C870        C  0.71746006  0.93591303  0.80948868    -0.08900
C871        C  0.74448539  0.95694116  0.80406248     0.06700
C872        C  0.75777899  0.94969141  0.78211580    -0.14000
S873        S  0.69882995  0.86902358  0.74834021    -0.30900
H874        H  0.68293271  0.89384223  0.79648647     0.10900
S875        S  0.76220147  0.99320649  0.82513754    -0.28000
H876        H  0.77877921  0.96490278  0.77809318     0.08200
H877        H  0.82824008  0.81997611  0.70043569     0.26600
H878        H  0.67283781  0.86161189  0.76123927     0.21400
H879        H  0.78698812  0.00365526  0.81135077     0.26700
H880        H  0.72350425  0.98797089  0.74093671     0.15600
C881        C  0.74355296  0.71750439  0.54353568    -0.11700
C882        C  0.73432100  0.74340373  0.52452342     0.14800
C883        C  0.73383377  0.79030904  0.52672724     0.01700
C884        C  0.74562800  0.81019080  0.54695608    -0.16100
C885        C  0.75683880  0.78400128  0.56525788    -0.10900
C886        C  0.75425852  0.73727595  0.56393798     0.08400
C887        C  0.72733851  0.72009278  0.50233838     0.09500
S888        S  0.71939563  0.82639014  0.50416343    -0.25200
H889        H  0.74708605  0.84608472  0.54802501     0.19700
S890        S  0.76445328  0.70101649  0.58767277    -0.30900
H891        H  0.74313328  0.68154900  0.54223304     0.10000
C892        C  0.74545691  0.72446570  0.48233938     0.03200
C893        C  0.73821515  0.70144434  0.46176210    -0.13200
C894        C  0.71353836  0.67332191  0.46081043    -0.08900
C895        C  0.69663013  0.66650085  0.48148083     0.06700
C896        C  0.70362599  0.69033615  0.50192357    -0.14000
S897        S  0.77829520  0.75835190  0.48313238    -0.30900
H898        H  0.75144728  0.70641921  0.44613098     0.10900
S899        S  0.66684702  0.62656044  0.48244668    -0.28000
H900        H  0.69065048  0.68587552  0.51774631     0.08200
H901        H  0.75414058  0.72999535  0.60528189     0.26600
H902        H  0.78562380  0.75437029  0.45916554     0.21400
H903        H  0.65835975  0.63400521  0.50593707     0.26700
H904        H  0.70041209  0.79495744  0.49396996     0.15600
C905        C  0.26249200  0.64406556  0.28073289    -0.11700
C906        C  0.26034832  0.60442910  0.26779261     0.14800
C907        C  0.27432395  0.56578736  0.27665674     0.01700
C908        C  0.28793507  0.56695765  0.29887309    -0.16100
C909        C  0.28905798  0.60635055  0.31222862    -0.10900
C910        C  0.27706811  0.64569137  0.30240461     0.08400
C911        C  0.24494454  0.60587698  0.24458561     0.09500
S912        S  0.27585839  0.51414234  0.26051362    -0.25200
H913        H  0.29715936  0.53657700  0.30598880     0.19700
S914        S  0.28029813  0.69945479  0.31628043    -0.30900
H915        H  0.25288441  0.67429670  0.27374265     0.10000
C916        C  0.21862381  0.58239071  0.23994854     0.03200
C917        C  0.20557746  0.58496994  0.21743038    -0.13200
C918        C  0.21770225  0.61186349  0.19961705    -0.08900
C919        C  0.24275161  0.63813754  0.20524553     0.06700
C920        C  0.25631583  0.63389816  0.22717616    -0.14000
S921        S  0.20124444  0.55007931  0.26282540    -0.30900
H922        H  0.18627260  0.56525432  0.21356214     0.10900
S923        S  0.25807672  0.67944337  0.18576703    -0.28000
H924        H  0.27582770  0.65337936  0.23088292     0.08200
H925        H  0.30797166  0.69081031  0.32636731     0.26600
H926        H  0.17628766  0.53761283  0.24979500     0.21400
H927        H  0.23041983  0.69470911  0.17811305     0.26700
H928        H  0.27492801  0.53316852  0.23795284     0.15600
C929        C  0.47497566  0.66469816  0.36785207    -0.11700
C930        C  0.48682957  0.63273783  0.35254106     0.14800
C931        C  0.46740764  0.60328018  0.34098893     0.01700
C932        C  0.43729066  0.60388049  0.34653903    -0.16100
C933        C  0.42550447  0.63420837  0.36298378    -0.10900
C934        C  0.44469301  0.66680430  0.37271128     0.08400
C935        C  0.51953508  0.62735386  0.35171317     0.09500
S936        S  0.47978195  0.56336089  0.31941379    -0.25200
H937        H  0.42315353  0.57934863  0.33839339     0.19700
S938        S  0.43172538  0.71110810  0.39174724    -0.30900
H939        H  0.48981798  0.68710831  0.37682682     0.10000
C940        C  0.53864490  0.66319650  0.34673124     0.03200
C941        C  0.56911019  0.65826343  0.35034180    -0.13200
C942        C  0.58113814  0.61796226  0.35838140    -0.08900
C943        C  0.56210675  0.58131933  0.36207141     0.06700
C944        C  0.53167196  0.58663777  0.35889173    -0.14000
S945        S  0.52432510  0.71532522  0.33582577    -0.30900
H946        H  0.58363751  0.68622028  0.34736403     0.10900
S947        S  0.57563270  0.52884109  0.37326624    -0.28000
H948        H  0.51698795  0.55951340  0.36322537     0.08200
H949        H  0.45863297  0.73366139  0.39430784     0.26600
H950        H  0.55126220  0.73831186  0.33532819     0.21400
H951        H  0.54934772  0.50471524  0.37054889     0.26700
H952        H  0.50450369  0.58781004  0.31205166     0.15600
C953        C  0.27545564  0.85586237  0.77156103    -0.11700
C954        C  0.26320170  0.89622833  0.76394374     0.14800
C955        C  0.26693984  0.93468673  0.77793015     0.01700
C956        C  0.28173890  0.93146883  0.79953446    -0.16100
C957        C  0.29335944  0.89076916  0.80738044    -0.10900
C958        C  0.29076637  0.85287470  0.79282801     0.08400
C959        C  0.24777686  0.89679769  0.74090480     0.09500
S960        S  0.25284438  0.98842562  0.76948985    -0.25200
H961        H  0.28315998  0.96058456  0.81073766     0.19700
S962        S  0.30663891  0.79977978  0.80037314    -0.30900
H963        H  0.27318840  0.82639120  0.76071424     0.10000
C964        C  0.26367584  0.88971291  0.71999410     0.03200
C965        C  0.24860427  0.88606672  0.69869286    -0.13200
C966        C  0.21777581  0.89057417  0.69733128    -0.08900
C967        C  0.20179591  0.89853502  0.71830541     0.06700
C968        C  0.21696693  0.90166296  0.73985567    -0.14000
S969        S  0.30343038  0.88627448  0.72027493    -0.30900
H970        H  0.26117769  0.88029041  0.68280286     0.10900
S971        S  0.16223474  0.90240916  0.71894927    -0.28000
H972        H  0.20464773  0.90672671  0.75597209     0.08200
H973        H  0.32930704  0.81691352  0.81454247     0.26600
H974        H  0.30755928  0.88549896  0.69574273     0.21400
H975        H  0.15762483  0.87060196  0.70116970     0.26700
H976        H  0.25536252  0.98196292  0.74507230     0.15600
C977        C  0.02799523  0.89893804  0.65655659    -0.11700
C978        C  0.01455723  0.85708376  0.65499064     0.14800
C979        C  0.03254359  0.81893378  0.65314372     0.01700
C980        C  0.06301684  0.82366876  0.65005166    -0.16100
C981        C  0.07639816  0.86583603  0.64960046    -0.10900
C982        C  0.05863178  0.90367085  0.65437850     0.08400
C983        C  0.98234847  0.85488620  0.65031177     0.09500
S984        S  0.01751246  0.76349271  0.65323935    -0.25200
H985        H  0.07625388  0.79417843  0.64701109     0.19700
S986        S  0.07307065  0.95935181  0.65509345    -0.30900
H987        H  0.01435835  0.92843124  0.65807312     0.10000
C988        C  0.96086786  0.86373397  0.66762759     0.03200
C989        C  0.93082895  0.86355731  0.66142363    -0.13200
C990        C  0.92176960  0.85450648  0.63821417    -0.08900
C991        C  0.94356410  0.84554199  0.62092953     0.06700
C992        C  0.97338810  0.84564440  0.62725830    -0.14000
S993        S  0.97173428  0.87443387  0.69761766    -0.30900
H994        H  0.91429779  0.87048619  0.67469530     0.10900
S995        S  0.93413313  0.83731259  0.59030123    -0.28000
H996        H  0.99010702  0.83961677  0.61400569     0.08200
H997        H  0.09336956  0.94950094  0.67302645     0.26600
H998        H  0.94315269  0.87954573  0.70681777     0.21400
H999        H  0.96279650  0.82939674  0.58185893     0.26700
H1000       H  0.99228659  0.77412097  0.66651190     0.15600
C1001       C  0.23175307  0.78411143  0.51371215    -0.11700
C1002       C  0.24324481  0.74185446  0.51915140     0.14800
C1003       C  0.24533520  0.72868160  0.54294173     0.01700
C1004       C  0.23598642  0.75777122  0.56054611    -0.16100
C1005       C  0.22364063  0.79917763  0.55503803    -0.10900
C1006       C  0.22144089  0.81263032  0.53139749     0.08400
C1007       C  0.25406908  0.71322950  0.49976810     0.09500
S1008       S  0.25823169  0.67456400  0.55205801    -0.25200
H1009       H  0.23690814  0.74701199  0.57875134     0.19700
S1010       S  0.20496518  0.86470848  0.52268008    -0.30900
H1011       H  0.23054437  0.79473021  0.49551586     0.10000
C1012       C  0.23549572  0.69943551  0.48127158     0.03200
C1013       C  0.24755782  0.67616721  0.46213545    -0.13200
C1014       C  0.27765626  0.66557534  0.46143696    -0.08900
C1015       C  0.29540762  0.67538392  0.48118769     0.06700
C1016       C  0.28372426  0.70034692  0.49967049    -0.14000
S1017       S  0.19652766  0.71158702  0.48193627    -0.30900
H1018       H  0.23382312  0.66823472  0.44715994     0.10900
S1019       S  0.33303653  0.65676028  0.48392761    -0.28000
H1020       H  0.29792355  0.70992434  0.51411950     0.08200
H1021       H  0.20877537  0.88702972  0.54418930     0.26600
H1022       H  0.18942555  0.69099468  0.46045963     0.21400
H1023       H  0.32883545  0.61723501  0.47108330     0.26700
H1024       H  0.24786408  0.65156363  0.53218932     0.15600
C1025       C  0.26327837  0.08859335  0.28484235    -0.11700
C1026       C  0.24604970  0.09307045  0.26468113     0.14800
C1027       C  0.21497825  0.09488502  0.26692722     0.01700
C1028       C  0.20209783  0.09491519  0.28948118    -0.16100
C1029       C  0.21965688  0.09211227  0.30971547    -0.10900
C1030       C  0.25052619  0.08722347  0.30710071     0.08400
C1031       C  0.26180612  0.09640145  0.24191057     0.09500
S1032       S  0.19071965  0.09759796  0.24188257    -0.25200
H1033       H  0.17843930  0.09804447  0.29124714     0.19700
S1034       S  0.27497008  0.07779349  0.33153084    -0.30900
H1035       H  0.28700762  0.08612360  0.28320771     0.10000
C1036       C  0.26355961  0.13686199  0.22953842     0.03200
C1037       C  0.27967664  0.13865914  0.20850420    -0.13200
C1038       C  0.29463064  0.10112302  0.19971974    -0.08900
C1039       C  0.29403200  0.06128463  0.21285918     0.06700
C1040       C  0.27751834  0.05928559  0.23365541    -0.14000
S1041       S  0.24558510  0.18630780  0.24061042    -0.30900
H1042       H  0.28005457  0.16918357  0.19846198     0.10900
S1043       S  0.31177774  0.01104112  0.20303061    -0.28000
H1044       H  0.27672589  0.02840666  0.24345625     0.08200
H1045       H  0.25604534  0.04701326  0.34231474     0.26600
H1046       H  0.25303271  0.21434947  0.22173557     0.21400
H1047       H  0.33968788  0.03104536  0.20149754     0.26700
H1048       H  0.21003718  0.07759660  0.22566887     0.15600
C1049       C  0.14297720  0.98588970  0.47460994    -0.11700
C1050       C  0.12562698  0.00732101  0.49168667     0.14800
C1051       C  0.11054381  0.04667783  0.48554701     0.01700
C1052       C  0.11424110  0.06475978  0.46301815    -0.16100
C1053       C  0.13215656  0.04398266  0.44601187    -0.10900
C1054       C  0.14613917  0.00339057  0.45188647     0.08400
C1055       C  0.12521266  0.98913164  0.51602042     0.09500
S1056       S  0.08685810  0.07595120  0.50583296    -0.25200
H1057       H  0.10349829  0.09598248  0.45887130     0.19700
S1058       S  0.17081371  0.97491964  0.43213000    -0.30900
H1059       H  0.15480007  0.95582056  0.47924271     0.10000
C1060       C  0.11206099  0.94790648  0.52109664     0.03200
C1061       C  0.11465835  0.92984230  0.54375827    -0.13200
C1062       C  0.13001621  0.95211592  0.56180284    -0.08900
C1063       C  0.14143772  0.99503583  0.55694717     0.06700
C1064       C  0.13925535  0.01264504  0.53414286    -0.14000
S1065       S  0.09223974  0.91795146  0.49858777    -0.30900
H1066       H  0.10547956  0.89729260  0.54720451     0.10900
S1067       S  0.16088126  0.02775184  0.57838334    -0.28000
H1068       H  0.14916530  0.04460581  0.53033885     0.08200
H1069       H  0.14932796  0.96965836  0.41456862     0.26600
H1070       H  0.08136500  0.88403785  0.51323027     0.21400
H1071       H  0.13731991  0.02728098  0.59449318     0.26700
H1072       H  0.07799516  0.03825249  0.51861081     0.15600
C1073       C  0.24910919  0.90965019  0.37403228    -0.11700
C1074       C  0.27329837  0.90624240  0.38906619     0.14800
C1075       C  0.28237764  0.94378326  0.40216060     0.01700
C1076       C  0.26639895  0.98365032  0.40019857    -0.16100
C1077       C  0.24137862  0.98645271  0.38576807    -0.10900
C1078       C  0.23330433  0.94908592  0.37203049     0.08400
C1079       C  0.28624243  0.86155699  0.39161525     0.09500
S1080       S  0.31326615  0.94316900  0.42211743    -0.25200
H1081       H  0.27298509  0.01222283  0.41055529     0.19700
S1082       S  0.20359221  0.94947732  0.35101621    -0.30900
H1083       H  0.24228359  0.88091918  0.36386253     0.10000
C1084       C  0.27207683  0.82987112  0.40582725     0.03200
C1085       C  0.28038414  0.78527356  0.40414663    -0.13200
C1086       C  0.30290261  0.77155765  0.38876933    -0.08900
C1087       C  0.31818268  0.80373423  0.37540643     0.06700
C1088       C  0.30953677  0.84847529  0.37687023    -0.14000
S1089       S  0.24281550  0.84620260  0.42567382    -0.30900
H1090       H  0.26926836  0.76079469  0.41494101     0.10900
S1091       S  0.34762977  0.78973122  0.35541359    -0.28000
H1092       H  0.32016494  0.87294352  0.36575556     0.08200
H1093       H  0.21053248  0.99176585  0.34207127     0.26600
H1094       H  0.23799450  0.80401438  0.43563577     0.21400
H1095       H  0.33647338  0.74788980  0.34901964     0.26700
H1096       H  0.32077923  0.89803255  0.42043562     0.15600
C1097       C  0.22150275  0.44051660  0.37361751    -0.11700
C1098       C  0.23198525  0.40372106  0.38611814     0.14800
C1099       C  0.25707648  0.40821002  0.40053773     0.01700
C1100       C  0.27220382  0.44867004  0.40098966    -0.16100
C1101       C  0.26250314  0.48512310  0.38766939    -0.10900
C1102       C  0.23658348  0.48098294  0.37403786     0.08400
C1103       C  0.21890225  0.35982882  0.38126546     0.09500
S1104       S  0.27136424  0.36316761  0.41813185    -0.25200
H1105       H  0.29189619  0.45159101  0.41161131     0.19700
S1106       S  0.22317862  0.52440024  0.35498740    -0.30900
H1107       H  0.20244042  0.43687528  0.36234902     0.10000
C1108       C  0.19194252  0.34665025  0.39124880     0.03200
C1109       C  0.18206055  0.30298048  0.38778814    -0.13200
C1110       C  0.19870161  0.27239575  0.37451808    -0.08900
C1111       C  0.22425591  0.28733804  0.36268417     0.06700
C1112       C  0.23427627  0.33060205  0.36647709    -0.14000
S1113       S  0.17146982  0.38416867  0.40995970    -0.30900
H1114       H  0.16254692  0.29174972  0.39697187     0.10900
S1115       S  0.24531285  0.25270672  0.34288619    -0.28000
H1116       H  0.25451904  0.34142386  0.35815233     0.08200
H1117       H  0.25113256  0.53564013  0.34613890     0.26600
H1118       H  0.14685800  0.35647632  0.41318337     0.21400
H1119       H  0.22129295  0.22644020  0.33579185     0.26700
H1120       H  0.24445045  0.34085161  0.42114381     0.15600
C1121       C  0.23918677  0.34665078  0.77662004    -0.11700
C1122       C  0.24099185  0.38673631  0.76408910     0.14800
C1123       C  0.22636612  0.42463245  0.77333631     0.01700
C1124       C  0.21294560  0.42254615  0.79568810    -0.16100
C1125       C  0.21243395  0.38280050  0.80872000    -0.10900
C1126       C  0.22458128  0.34397433  0.79828993     0.08400
C1127       C  0.25687873  0.38653780  0.74095956     0.09500
S1128       S  0.22367927  0.47639940  0.75747994    -0.25200
H1129       H  0.20350335  0.45249317  0.80318013     0.19700
S1130       S  0.22185981  0.28954372  0.81148321    -0.30900
H1131       H  0.24918585  0.31688995  0.76935693     0.10000
C1132       C  0.28215911  0.41267697  0.73640813     0.03200
C1133       C  0.29540883  0.41164514  0.71387691    -0.13200
C1134       C  0.28477190  0.38343277  0.69604932    -0.08900
C1135       C  0.26130867  0.35408697  0.70170216     0.06700
C1136       C  0.24723973  0.35700409  0.72354655    -0.14000
S1137       S  0.29822297  0.44604700  0.75946089    -0.30900
H1138       H  0.31375437  0.43339860  0.71003727     0.10900
S1139       S  0.24909878  0.31022277  0.68239947    -0.28000
H1140       H  0.22877569  0.33525705  0.72718568     0.08200
H1141       H  0.19449688  0.29739256  0.82239907     0.26600
H1142       H  0.32210798  0.46222887  0.74622992     0.21400
H1143       H  0.27782684  0.29878795  0.67532283     0.26700
H1144       H  0.22481068  0.45762258  0.73483594     0.15600
C1145       C  0.27414650  0.05374818  0.63826883    -0.11700
C1146       C  0.26970645  0.08268708  0.61931746     0.14800
C1147       C  0.25374085  0.06770868  0.59950623     0.01700
C1148       C  0.24103639  0.02524961  0.59979171    -0.16100
C1149       C  0.24444118  0.99693234  0.61919492    -0.10900
C1150       C  0.26182217  0.01112643  0.63838264     0.08400
C1151       C  0.27932878  0.12950093  0.62180665     0.09500
S1152       S  0.24729271  0.10206627  0.57400335    -0.25200
H1153       H  0.22753173  0.01477106  0.58509963     0.19700
S1154       S  0.26632555  0.97838092  0.66460867    -0.30900
H1155       H  0.28622170  0.06520023  0.65355607     0.10000
C1156       C  0.25906052  0.16329309  0.62754240     0.03200
C1157       C  0.26857022  0.20757514  0.62856777    -0.13200
C1158       C  0.29813565  0.21907339  0.62421956    -0.08900
C1159       C  0.31879880  0.18437501  0.62025166     0.06700
C1160       C  0.30909263  0.14021629  0.61880197    -0.14000
S1161       S  0.22093047  0.15002045  0.63330172    -0.30900
H1162       H  0.25253147  0.23350263  0.63187531     0.10900
S1163       S  0.35782538  0.19371904  0.61735892    -0.28000
H1164       H  0.32484272  0.11395538  0.61519718     0.08200
H1165       H  0.27128348  0.93833217  0.65250398     0.26600
H1166       H  0.21162017  0.19347807  0.63873077     0.21400
H1167       H  0.35874073  0.22741117  0.63455456     0.26700
H1168       H  0.27220223  0.12927380  0.57656771     0.15600
C1169       C  0.18885329  0.63829497  0.61282925    -0.11700
C1170       C  0.21225326  0.62459394  0.62711224     0.14800
C1171       C  0.22420154  0.65487707  0.64353390     0.01700
C1172       C  0.21428310  0.69896234  0.64391810    -0.16100
C1173       C  0.19207869  0.71365018  0.62861035    -0.10900
C1174       C  0.17872540  0.68232634  0.61332335     0.08400
C1175       C  0.22675423  0.58129209  0.62220471     0.09500
S1176       S  0.25306907  0.63966364  0.66375736    -0.25200
H1177       H  0.22466415  0.72239045  0.65577817     0.19700
S1178       S  0.15118071  0.69736503  0.59204657    -0.30900
H1179       H  0.17978009  0.61533937  0.60005583     0.10000
C1180       C  0.21313898  0.54018648  0.62704308     0.03200
C1181       C  0.22919380  0.50056155  0.62394323    -0.13200
C1182       C  0.25873546  0.50149523  0.61662123    -0.08900
C1183       C  0.27178595  0.54259844  0.61068424     0.06700
C1184       C  0.25551058  0.58188051  0.61321675    -0.14000
S1185       S  0.17624234  0.53839056  0.63884952    -0.30900
H1186       H  0.21938269  0.46901685  0.62867731     0.10900
S1187       S  0.30937597  0.54551417  0.60032529    -0.28000
H1188       H  0.26552813  0.61356353  0.60903441     0.08200
H1189       H  0.16863153  0.73091182  0.58201706     0.26600
H1190       H  0.17458205  0.49191324  0.64128116     0.21400
H1191       H  0.31044345  0.59184671  0.59706923     0.26700
H1192       H  0.24545369  0.59443591  0.66526300     0.15600
C1193       C  0.35135377  0.48325226  0.52631747    -0.11700
C1194       C  0.37985390  0.48492499  0.51678856     0.14800
C1195       C  0.40403934  0.47352681  0.53128443     0.01700
C1196       C  0.39896305  0.45890156  0.55443726    -0.16100
C1197       C  0.37025584  0.45528394  0.56345252    -0.10900
C1198       C  0.34624038  0.46759826  0.54914912     0.08400
C1199       C  0.38288434  0.49902011  0.49175835     0.09500
S1200       S  0.44164548  0.47499701  0.52109623    -0.25200
H1201       H  0.41743327  0.44860043  0.56518211     0.19700
S1202       S  0.30878467  0.45876860  0.55886485    -0.30900
H1203       H  0.33288902  0.49265823  0.51536412     0.10000
C1204       C  0.36817285  0.47610861  0.47347046     0.03200
C1205       C  0.36607461  0.49553342  0.45104424    -0.13200
C1206       C  0.37891057  0.53700053  0.44638207    -0.08900
C1207       C  0.39679944  0.55686527  0.46386224     0.06700
C1208       C  0.39795665  0.53839866  0.48644552    -0.14000
S1209       S  0.35107511  0.42284044  0.47889569    -0.30900
H1210       H  0.35265323  0.47991930  0.43766458     0.10900
S1211       S  0.41801241  0.60655341  0.45854552    -0.28000
H1212       H  0.40988049  0.55568847  0.50017078     0.08200
H1213       H  0.29472425  0.47604486  0.53883175     0.26600
H1214       H  0.34192151  0.41481210  0.45564778     0.21400
H1215       H  0.42130360  0.59944661  0.43419388     0.26700
H1216       H  0.43540160  0.46469178  0.49750492     0.15600
C1217       C  0.26289254  0.24195933  0.46685599    -0.11700
C1218       C  0.25145847  0.23514673  0.48946517     0.14800
C1219       C  0.22942311  0.20275666  0.49305919     0.01700
C1220       C  0.21866469  0.17893056  0.47376421    -0.16100
C1221       C  0.23021583  0.18570793  0.45116754    -0.10900
C1222       C  0.25277295  0.21728300  0.44774821     0.08400
C1223       C  0.26304952  0.26269892  0.50876030     0.09500
S1224       S  0.21383915  0.19084440  0.52158858    -0.25200
H1225       H  0.20094394  0.15530550  0.47631325     0.19700
S1226       S  0.26751602  0.23051972  0.41914343    -0.30900
H1227       H  0.27967294  0.26702243  0.46407683     0.10000
C1228       C  0.29178796  0.25601365  0.51716259     0.03200
C1229       C  0.30228244  0.28284456  0.53535465    -0.13200
C1230       C  0.28447566  0.31585058  0.54567775    -0.08900
C1231       C  0.25595931  0.32347898  0.53663327     0.06700
C1232       C  0.24550071  0.29666598  0.51831547    -0.14000
S1233       S  0.31441001  0.21134253  0.50578061    -0.30900
H1234       H  0.32391980  0.27625829  0.54250332     0.10900
S1235       S  0.23215507  0.36701377  0.54740752    -0.28000
H1236       H  0.22358406  0.30226309  0.51143201     0.08200
H1237       H  0.27219858  0.18603961  0.41254906     0.26600
H1238       H  0.33943024  0.22000608  0.51957037     0.21400
H1239       H  0.25502830  0.39598284  0.55386479     0.26700
H1240       H  0.23886740  0.20210087  0.53480032     0.15600
C1241       C  0.78355163  0.08677549  0.26895603    -0.11700
C1242       C  0.76285110  0.12043033  0.26424495     0.14800
C1243       C  0.75549646  0.15066944  0.28233199     0.01700
C1244       C  0.76805027  0.14585550  0.30464481    -0.16100
C1245       C  0.78849005  0.11188255  0.30966206    -0.10900
C1246       C  0.79630159  0.08204886  0.29135880     0.08400
C1247       C  0.74914859  0.12354476  0.24047152     0.09500
S1248       S  0.73035905  0.19646633  0.27806208    -0.25200
H1249       H  0.76177742  0.16926115  0.31828340     0.19700
S1250       S  0.82091029  0.03579974  0.29568478    -0.30900
H1251       H  0.78929920  0.06333912  0.25518984     0.10000
C1252       C  0.76584106  0.13611336  0.22066458     0.03200
C1253       C  0.75171241  0.14306121  0.19906841    -0.13200
C1254       C  0.72110336  0.13758818  0.19650910    -0.08900
C1255       C  0.70446072  0.12382978  0.21624148     0.06700
C1256       C  0.71865648  0.11672242  0.23789949    -0.14000
S1257       S  0.80502661  0.14533961  0.22299128    -0.30900
H1258       H  0.76470615  0.15287483  0.18395338     0.10900
S1259       S  0.66507810  0.11700766  0.21529594    -0.28000
H1260       H  0.70569969  0.10710105  0.25308570     0.08200
H1261       H  0.80773589  0.02231011  0.31693681     0.26600
H1262       H  0.81055829  0.15054203  0.19878948     0.21400
H1263       H  0.66003075  0.15208728  0.19945163     0.26700
H1264       H  0.73816572  0.20469032  0.25451504     0.15600
C1265       C  0.81342647  0.35033477  0.38428260    -0.11700
C1266       C  0.78424426  0.36396720  0.38797982     0.14800
C1267       C  0.76191179  0.33152720  0.38988298     0.01700
C1268       C  0.76940182  0.28642082  0.38904813    -0.16100
C1269       C  0.79870766  0.27247624  0.38587576    -0.10900
C1270       C  0.82086832  0.30511070  0.38302168     0.08400
C1271       C  0.77732017  0.41209914  0.38852188     0.09500
S1272       S  0.72349419  0.34535693  0.39377449    -0.25200
H1273       H  0.75215730  0.26194506  0.39143922     0.19700
S1274       S  0.85880244  0.29138420  0.37706084    -0.30900
H1275       H  0.83049951  0.37517116  0.38218878     0.10000
C1276       C  0.76884966  0.43405565  0.40944318     0.03200
C1277       C  0.75753763  0.47756078  0.40824775    -0.13200
C1278       C  0.75423373  0.49894146  0.38649652    -0.08900
C1279       C  0.76525823  0.47827233  0.36593189     0.06700
C1280       C  0.77661781  0.43515317  0.36715088    -0.14000
S1281       S  0.77088096  0.40573235  0.43738384    -0.30900
H1282       H  0.74918659  0.49358200  0.42397871     0.10900
S1283       S  0.76399844  0.50453824  0.33742560    -0.28000
H1284       H  0.78360415  0.41860746  0.35112276     0.08200
H1285       H  0.85244441  0.25362196  0.36334772     0.26600
H1286       H  0.76058612  0.44132094  0.45124000     0.21400
H1287       H  0.76615660  0.54824632  0.34606586     0.26700
H1288       H  0.72398478  0.38546250  0.38112468     0.15600
C1289       C  0.71620769  0.83773628  0.36355153    -0.11700
C1290       C  0.71497329  0.86146257  0.38482316     0.14800
C1291       C  0.70139471  0.84174539  0.40458406     0.01700
C1292       C  0.69161144  0.79771446  0.40316966    -0.16100
C1293       C  0.69472020  0.77283414  0.38235776    -0.10900
C1294       C  0.70602265  0.79384597  0.36205805     0.08400
C1295       C  0.73014749  0.90501703  0.38619885     0.09500
S1296       S  0.69738923  0.87003593  0.43242487    -0.25200
H1297       H  0.68294031  0.78198692  0.41887591     0.19700
S1298       S  0.70807300  0.76651187  0.33386810    -0.30900
H1299       H  0.72601607  0.85308764  0.34817785     0.10000
C1300       C  0.75762766  0.90932028  0.39751982     0.03200
C1301       C  0.77246119  0.95021709  0.39678415    -0.13200
C1302       C  0.76030152  0.98700599  0.38512476    -0.08900
C1303       C  0.73267579  0.98270508  0.37399476     0.06700
C1304       C  0.71785240  0.94189144  0.37473811    -0.14000
S1305       S  0.77438556  0.86229864  0.41210510    -0.30900
H1306       H  0.79376918  0.95353652  0.40508654     0.10900
S1307       S  0.71601654  0.02727754  0.35750762    -0.28000
H1308       H  0.69691734  0.93848750  0.36582156     0.08200
H1309       H  0.68503469  0.73634653  0.33809892     0.26600
H1310       H  0.79926130  0.88490320  0.42065493     0.21400
H1311       H  0.74251679  0.04358082  0.34806060     0.26700
H1312       H  0.69678817  0.91337377  0.42320660     0.15600
C1313       C  0.89100415  0.01447057  0.48097844    -0.11700
C1314       C  0.86954763  0.98242793  0.48609937     0.14800
C1315       C  0.84894290  0.97070614  0.46859608     0.01700
C1316       C  0.84926034  0.99281554  0.44693814    -0.16100
C1317       C  0.86973081  0.02663905  0.44212086    -0.10900
C1318       C  0.89152359  0.03628963  0.45916997     0.08400
C1319       C  0.86738439  0.96460679  0.51036815     0.09500
S1320       S  0.82038221  0.93002752  0.47335208    -0.25200
H1321       H  0.83219869  0.98523330  0.43426069     0.19700
S1322       S  0.92047482  0.07605806  0.45422318    -0.30900
H1323       H  0.90707540  0.02321391  0.49426526     0.10000
C1324       C  0.88409980  0.92773171  0.51780425     0.03200
C1325       C  0.87884679  0.90920221  0.54014183    -0.13200
C1326       C  0.85758195  0.92741859  0.55539247    -0.08900
C1327       C  0.84167284  0.96540549  0.54807837     0.06700
C1328       C  0.84686399  0.98368190  0.52581148    -0.14000
S1329       S  0.91118511  0.90325681  0.49844188    -0.30900
H1330       H  0.89099552  0.88003748  0.54564646     0.10900
S1331       S  0.81293098  0.99018588  0.56551115    -0.28000
H1332       H  0.83398479  0.01202493  0.52009004     0.08200
H1333       H  0.92247415  0.06786738  0.42988893     0.26600
H1334       H  0.92243870  0.87248271  0.51474731     0.21400
H1335       H  0.80098506  0.94950274  0.57306727     0.26700
H1336       H  0.83623763  0.90339685  0.48918526     0.15600
C1337       C  0.97359889  0.16521506  0.37619164    -0.11700
C1338       C  0.98494860  0.14636234  0.35552933     0.14800
C1339       C  0.96527533  0.12675380  0.33932912     0.01700
C1340       C  0.93515407  0.12392471  0.34485040    -0.16100
C1341       C  0.92391400  0.14115749  0.36607467    -0.10900
C1342       C  0.94364785  0.16275726  0.38171191     0.08400
C1343       C  0.01751451  0.14173865  0.35358261     0.09500
S1344       S  0.97737664  0.10439670  0.31150019    -0.25200
H1345       H  0.92043061  0.10771064  0.33257434     0.19700
S1346       S  0.93299952  0.18430502  0.41011382    -0.30900
H1347       H  0.98856648  0.17960987  0.38892332     0.10000
C1348       C  0.03638603  0.17898496  0.35388797     0.03200
C1349       C  0.06679300  0.17280728  0.35723394    -0.13200
C1350       C  0.07889908  0.13002544  0.35972149    -0.08900
C1351       C  0.06012169  0.09272328  0.35766276     0.06700
C1352       C  0.02978049  0.09898129  0.35490500    -0.14000
S1353       S  0.02164999  0.23442464  0.35059624    -0.30900
H1354       H  0.08109574  0.20143718  0.35874242     0.10900
S1355       S  0.07300213  0.03654719  0.36145321    -0.28000
H1356       H  0.01541381  0.07023573  0.35497814     0.08200
H1357       H  0.91677234  0.14646704  0.41642071     0.26600
H1358       H  0.04888902  0.25655614  0.34966952     0.21400
H1359       H  0.09261645  0.03904234  0.34231701     0.26700
H1360       H  0.00241958  0.13155235  0.30936682     0.15600
C1361       C  0.72911635  0.44566380  0.73030761    -0.11700
C1362       C  0.74157426  0.40971206  0.74248721     0.14800
C1363       C  0.73796960  0.36638042  0.73341830     0.01700
C1364       C  0.72328837  0.36020346  0.71203167    -0.16100
C1365       C  0.71148484  0.39618114  0.69922158    -0.10900
C1366       C  0.71416274  0.43951544  0.70893888     0.08400
C1367       C  0.75686136  0.41807701  0.76517144     0.09500
S1368       S  0.75214943  0.31751155  0.74795035    -0.25200
H1369       H  0.72158767  0.32671017  0.70511466     0.19700
S1370       S  0.70106913  0.48876037  0.69432231    -0.30900
H1371       H  0.73142425  0.47896046  0.73738213     0.10000
C1372       C  0.78769327  0.41442014  0.76771835     0.03200
C1373       C  0.80053470  0.41936820  0.79015729    -0.13200
C1374       C  0.78309429  0.42769482  0.81016514    -0.08900
C1375       C  0.75219714  0.43339338  0.80707522     0.06700
C1376       C  0.73964804  0.42821873  0.78483217    -0.14000
S1377       S  0.81059219  0.40335314  0.74239231    -0.30900
H1378       H  0.82408000  0.41554678  0.79221564     0.10900
S1379       S  0.72705767  0.44800493  0.83047117    -0.28000
H1380       H  0.71602314  0.43165267  0.78284654     0.08200
H1381       H  0.67177071  0.47366561  0.69370821     0.26600
H1382       H  0.83716131  0.39821178  0.75476686     0.21400
H1383       H  0.74670746  0.47694852  0.84159238     0.26700
H1384       H  0.74933616  0.33358417  0.77106693     0.15600
C1385       C  0.63626648  0.49235275  0.52796472    -0.11700
C1386       C  0.62903148  0.46462779  0.50893730     0.14800
C1387       C  0.62340985  0.41927572  0.51341708     0.01700
C1388       C  0.62696032  0.40226191  0.53621789    -0.16100
C1389       C  0.63537277  0.42943066  0.55533303    -0.10900
C1390       C  0.63890669  0.47569152  0.55098859     0.08400
C1391       C  0.63011416  0.48297882  0.48449395     0.09500
S1392       S  0.61201844  0.38116609  0.49067052    -0.25200
H1393       H  0.62339832  0.36700096  0.53890089     0.19700
S1394       S  0.64809364  0.51526273  0.57356427    -0.30900
H1395       H  0.64050519  0.52730890  0.52475753     0.10000
C1396       C  0.61063024  0.51640380  0.47674873     0.03200
C1397       C  0.61425276  0.53503368  0.45419998    -0.13200
C1398       C  0.63682209  0.52082675  0.43878989    -0.08900
C1399       C  0.65505091  0.48506913  0.44622375     0.06700
C1400       C  0.65178198  0.46731665  0.46891580    -0.14000
S1401       S  0.58106073  0.53534362  0.49555988    -0.30900
H1402       H  0.59981797  0.56179151  0.44880966     0.10900
S1403       S  0.68407768  0.46190674  0.42841604    -0.28000
H1404       H  0.66666013  0.44130547  0.47465903     0.08200
H1405       H  0.62351632  0.50425249  0.58749248     0.26600
H1406       H  0.56828529  0.56502264  0.47940741     0.21400
H1407       H  0.66512961  0.45183172  0.40960128     0.26700
H1408       H  0.59726557  0.41297684  0.47691026     0.15600
C1409       C  0.77680538  0.63716491  0.64906549    -0.11700
C1410       C  0.79165125  0.60924684  0.63318247     0.14800
C1411       C  0.81594112  0.62625262  0.62057679     0.01700
C1412       C  0.82339440  0.67135939  0.62279813    -0.16100
C1413       C  0.80705528  0.70036279  0.63734138    -0.10900
C1414       C  0.78442664  0.68209218  0.65151565     0.08400
C1415       C  0.77940164  0.56413693  0.62874530     0.09500
S1416       S  0.83722435  0.59270786  0.60044184    -0.25200
H1417       H  0.84085253  0.68442587  0.61179761     0.19700
S1418       S  0.76404835  0.71436169  0.67275793    -0.30900
H1419       H  0.75848211  0.62412276  0.65914685     0.10000
C1420       C  0.78087478  0.53030875  0.64584575     0.03200
C1421       C  0.76562737  0.49027862  0.64221064    -0.13200
C1422       C  0.74849022  0.48355235  0.62196042    -0.08900
C1423       C  0.74827319  0.51647511  0.60428524     0.06700
C1424       C  0.76379585  0.55638098  0.60782314    -0.14000
S1425       S  0.80169777  0.53852469  0.67252225    -0.30900
H1426       H  0.76575247  0.46502183  0.65577704     0.10900
S1427       S  0.72853556  0.50749298  0.57715448    -0.28000
H1428       H  0.76302269  0.58231130  0.59464016     0.08200
H1429       H  0.78751145  0.74316251  0.67793401     0.26600
H1430       H  0.79394216  0.49815527  0.68336402     0.21400
H1431       H  0.73434598  0.54934536  0.56715168     0.26700
H1432       H  0.83224233  0.55195302  0.61186277     0.15600
C1433       C  0.71906530  0.14114454  0.65267011    -0.11700
C1434       C  0.70791125  0.11279991  0.63518197     0.14800
C1435       C  0.68625622  0.12918762  0.61962632     0.01700
C1436       C  0.67770192  0.17396826  0.62094654    -0.16100
C1437       C  0.69042496  0.20324476  0.63732644    -0.10900
C1438       C  0.71047871  0.18594298  0.65399192     0.08400
C1439       C  0.72236502  0.06889398  0.63157599     0.09500
S1440       S  0.67081255  0.09609166  0.59621981    -0.25200
H1441       H  0.66255442  0.18677999  0.60787965     0.19700
S1442       S  0.72649572  0.21964292  0.67688649    -0.30900
H1443       H  0.73556784  0.12873010  0.66475818     0.10000
C1444       C  0.74781209  0.06531954  0.61756413     0.03200
C1445       C  0.76227223  0.02426455  0.61558512    -0.13200
C1446       C  0.75207127  0.98588482  0.62725323    -0.08900
C1447       C  0.72602890  0.98965668  0.64105804     0.06700
C1448       C  0.71154716  0.03091339  0.64297400    -0.14000
S1449       S  0.76261304  0.11365039  0.60283939    -0.30900
H1450       H  0.78228668  0.02258467  0.60538837     0.10900
S1451       S  0.71089502  0.94433171  0.65783177    -0.28000
H1452       H  0.69205503  0.03371637  0.65389574     0.08200
H1453       H  0.70284118  0.24977035  0.67847373     0.26600
H1454       H  0.78502656  0.09149647  0.59034201     0.21400
H1455       H  0.73765969  0.93415231  0.66894448     0.26700
H1456       H  0.67509152  0.05438352  0.60672277     0.15600
C1457       C  0.46565645  0.37261646  0.66641809    -0.11700
C1458       C  0.48363595  0.35048301  0.64996365     0.14800
C1459       C  0.47006318  0.32599536  0.63170865     0.01700
C1460       C  0.43937774  0.32573579  0.62976351    -0.16100
C1461       C  0.42148910  0.35100560  0.64494389    -0.10900
C1462       C  0.43487708  0.37342066  0.66402807     0.08400
C1463       C  0.51631044  0.35492136  0.65135260     0.09500
S1464       S  0.49056341  0.29729165  0.60907789    -0.25200
H1465       H  0.42959733  0.30848195  0.61497276     0.19700
S1466       S  0.41402129  0.40375633  0.68578706    -0.30900
H1467       H  0.47575290  0.39047441  0.68085899     0.10000
C1468       C  0.53031317  0.39646590  0.64821172     0.03200
C1469       C  0.56109411  0.39826267  0.64576148    -0.13200
C1470       C  0.57824520  0.35938457  0.64579380    -0.08900
C1471       C  0.56438980  0.31823264  0.65058837     0.06700
C1472       C  0.53374843  0.31652499  0.65348034    -0.14000
S1473       S  0.50897710  0.44683128  0.64482287    -0.30900
H1474       H  0.57160501  0.42973181  0.64193110     0.10900
S1475       S  0.58445880  0.26657201  0.65257771    -0.28000
H1476       H  0.52324049  0.28465570  0.65636019     0.08200
H1477       H  0.38894563  0.37645648  0.68447708     0.26600
H1478       H  0.53288230  0.47643565  0.64375305     0.21400
H1479       H  0.61078598  0.28572214  0.66070336     0.26700
H1480       H  0.51270819  0.32968365  0.60696771     0.15600
C1481       C  0.78443506  0.17438151  0.50379461    -0.11700
C1482       C  0.76148090  0.20557727  0.50330229     0.14800
C1483       C  0.74544795  0.21218726  0.48236419     0.01700
C1484       C  0.75393554  0.18972096  0.46199991    -0.16100
C1485       C  0.77789379  0.16024322  0.46209230    -0.10900
C1486       C  0.79246294  0.15100402  0.48351128     0.08400
C1487       C  0.75424181  0.23045424  0.52485431     0.09500
S1488       S  0.71472397  0.25010515  0.48022588    -0.25200
H1489       H  0.74271806  0.19726512  0.44566401     0.19700
S1490       S  0.82142153  0.11008971  0.48604437    -0.30900
H1491       H  0.79620549  0.16840613  0.52005555     0.10000
C1492       C  0.74028352  0.20911919  0.54382229     0.03200
C1493       C  0.72973270  0.23473693  0.56249057    -0.13200
C1494       C  0.73250004  0.28122568  0.56241939    -0.08900
C1495       C  0.74749209  0.30250653  0.54388046     0.06700
C1496       C  0.75865124  0.27671450  0.52538538    -0.14000
S1497       S  0.73388801  0.14978535  0.54348563    -0.30900
H1498       H  0.71832708  0.21870423  0.57691548     0.10900
S1499       S  0.75114714  0.36211031  0.54194958    -0.28000
H1500       H  0.76933766  0.29295060  0.51067679     0.08200
H1501       H  0.81159719  0.08320581  0.46736805     0.26600
H1502       H  0.71806932  0.14759168  0.56474396     0.21400
H1503       H  0.72391461  0.37234628  0.55246540     0.26700
H1504       H  0.70431862  0.24363690  0.50327912     0.15600
loop_ 
_geom_bond_atom_site_label_1 
_geom_bond_atom_site_label_2 
_geom_bond_distance 
_geom_bond_site_symmetry_2 
_ccdc_geom_bond_type 
Fe1          O17   2.081       .  S
Fe1           O7   2.113       .  S
Fe1          O14   2.103       .  S
Fe1           O6   2.062       .  S
Fe1          O12   1.960       .  S
Fe2           O5   2.066       .  S
Fe2           O9   2.064       .  S
Fe2          O13   2.064       .  S
Fe2          O18   2.054       .  S
Fe2          O12   1.960       .  S
Fe3          O21   2.086       .  S
Fe3           O8   2.062       .  S
Fe3          O15   2.046       .  S
Fe3           O4   2.084       .  S
Fe3          O12   1.961       .  S
O4           C11   1.269       .  A
O5           C19   1.270       .  A
O6           C11   1.265       .  A
O7           C10   1.281       .  A
O8           C20   1.270       .  A
O9           C22   1.268       .  A
C10          O15   1.272       .  A
C10        C1365   1.497       .  S
C11        C1422   1.483       .  S
O13          C16   1.272       .  A
O14          C16   1.277       .  A
C16        C1389   1.507       .  S
O17          C22   1.271       .  A
O18          C20   1.268       .  A
C19          O21   1.272       .  A
C19        C1437   1.486       .  S
C20        C1494   1.461       .  S
C22        C1470   1.485       .  S
Fe23         O39   2.072       .  S
Fe23         O29   2.067       .  S
Fe23         O36   2.091       .  S
Fe23         O28   2.094       .  S
Fe23         O34   1.969       .  S
Fe24         O27   2.037       .  S
Fe24         O31   2.078       .  S
Fe24         O35   2.051       .  S
Fe24         O40   2.069       .  S
Fe24         O34   1.966       .  S
Fe25         O43   2.065       .  S
Fe25         O30   2.068       .  S
Fe25         O37   2.067       .  S
Fe25         O26   2.068       .  S
Fe25         O34   1.966       .  S
O26          C33   1.274       .  A
O27          C41   1.263       .  A
O28          C33   1.280       .  A
O29          C32   1.266       .  A
O30          C42   1.272       .  A
O31          C44   1.272       .  A
C32          O37   1.266       .  A
C32        C1302   1.476   1_545  S
C33        C1245   1.494       .  S
O35          C38   1.262       .  A
O36          C38   1.271       .  A
C38        C1341   1.490       .  S
O39          C44   1.274       .  A
O40          C42   1.271       .  A
C41          O43   1.269       .  A
C41        C1485   1.469       .  S
C42        C1269   1.484       .  S
C44        C1317   1.487       .  S
Fe45         O61   2.078       .  S
Fe45         O51   2.066       .  S
Fe45         O58   2.091       .  S
Fe45         O50   2.098       .  S
Fe45         O56   1.950       .  S
Fe46         O49   2.046       .  S
Fe46         O53   2.080       .  S
Fe46         O57   2.054       .  S
Fe46         O62   2.077       .  S
Fe46         O56   1.954       .  S
Fe47         O65   2.075       .  S
Fe47         O52   2.062       .  S
Fe47         O59   2.071       .  S
Fe47         O48   2.074       .  S
Fe47         O56   1.948       .  S
O48          C55   1.274       .  A
O49          C63   1.267       .  A
O50          C55   1.282       .  A
O51          C54   1.267       .  A
O52          C64   1.272       .  A
O53          C66   1.271       .  A
C54          O59   1.269       .  A
C54        C1182   1.477       .  S
C55        C1134   1.498       .  S
O57          C60   1.267       .  A
O58          C60   1.272       .  A
C60        C1461   1.488       .  S
O61          C66   1.274       .  A
O62          C64   1.272       .  A
C63          O65   1.271       .  A
C63        C1230   1.475       .  S
C64        C1158   1.491       .  S
C66        C1197   1.479       .  S
Fe67         O83   2.064       .  S
Fe67         O73   2.109       .  S
Fe67         O80   2.106       .  S
Fe67         O72   2.040       .  S
Fe67         O78   1.957       .  S
Fe68         O71   2.055       .  S
Fe68         O75   2.068       .  S
Fe68         O79   2.047       .  S
Fe68         O84   2.067       .  S
Fe68         O78   1.963       .  S
Fe69         O87   2.075       .  S
Fe69         O74   2.051       .  S
Fe69         O81   2.040       .  S
Fe69         O70   2.075       .  S
Fe69         O78   1.956       .  S
O70          C77   1.267       .  A
O71          C85   1.271       .  A
O72          C77   1.262       .  A
O73          C76   1.281       .  A
O74          C86   1.264       .  A
O75          C88   1.266       .  A
C76          O81   1.269       .  A
C76        C1029   1.480       .  S
C77        C1077   1.478   1_545  S
O79          C82   1.271       .  A
O80          C82   1.281       .  A
C82        C1053   1.486       .  S
O83          C88   1.264       .  A
O84          C86   1.266       .  A
C85          O87   1.273       .  A
C85        C1110   1.477       .  S
C86        C1221   1.463       .  S
C88        C1350   1.484       .  S
Fe89        O105   2.073       .  S
Fe89         O95   2.111       .  S
Fe89        O102   2.103       .  S
Fe89         O94   2.051       .  S
Fe89        O100   1.972       .  S
Fe90         O93   2.064       .  S
Fe90         O97   2.068       .  S
Fe90        O101   2.050       .  S
Fe90        O106   2.062       .  S
Fe90        O100   1.970       .  S
Fe91        O109   2.082       .  S
Fe91         O96   2.052       .  S
Fe91        O103   2.043       .  S
Fe91         O92   2.080       .  S
Fe91        O100   1.965       .  S
O92          C99   1.267       .  A
O93         C107   1.271       .  A
O94          C99   1.262       .  A
O95          C98   1.282       .  A
O96         C108   1.265       .  A
O97         C110   1.267       .  A
C98         O103   1.271       .  A
C98         C966   1.490       .  S
C99        C1149   1.476       .  S
O101        C104   1.271       .  A
O102        C104   1.279       .  A
C104       C1062   1.496       .  S
O105        C110   1.266       .  A
O106        C108   1.265       .  A
C107        O109   1.274       .  A
C107       C1173   1.485       .  S
C108       C1005   1.459       .  S
C110        C981   1.494       .  S
Fe111       O127   2.108       .  S
Fe111       O117   2.058       .  S
Fe111       O124   2.081       .  S
Fe111       O116   2.112       .  S
Fe111       O122   1.966       .  S
Fe112       O115   2.058       .  S
Fe112       O119   2.039       .  S
Fe112       O123   2.050       .  S
Fe112       O128   2.056       .  S
Fe112       O122   1.961       .  S
Fe113       O131   2.063       .  S
Fe113       O118   2.071       .  S
Fe113       O125   2.059       .  S
Fe113       O114   2.056       .  S
Fe113       O122   1.963       .  S
O114        C121   1.273       .  A
O115        C129   1.267       .  A
O116        C121   1.283       .  A
O117        C120   1.265       .  A
O118        C130   1.271       .  A
O119        C132   1.268       .  A
C120        O125   1.264       .  A
C120       C1101   1.476       .  S
C121        C909   1.492       .  S
O123        C126   1.261       .  A
O124        C126   1.270       .  A
C126        C933   1.501       .  S
O127        C132   1.281       .  A
O128        C130   1.267       .  A
C129        O131   1.269       .  A
C129       C1014   1.476       .  S
C130       C1086   1.473       .  S
C132       C1206   1.483       .  S
Fe133       O149   2.100       .  S
Fe133       O139   2.050       .  S
Fe133       O146   2.074       .  S
Fe133       O138   2.097       .  S
Fe133       O144   1.959       .  S
Fe134       O137   2.076       .  S
Fe134       O141   2.058       .  S
Fe134       O145   2.074       .  S
Fe134       O150   2.062       .  S
Fe134       O144   1.961       .  S
Fe135       O153   2.068       .  S
Fe135       O140   2.095       .  S
Fe135       O147   2.100       .  S
Fe135       O136   2.057       .  S
Fe135       O144   1.958       .  S
O136        C143   1.271       .  A
O137        C151   1.271       .  A
O138        C143   1.278       .  A
O139        C142   1.267       .  A
O140        C152   1.275       .  A
O141        C154   1.270       .  A
C142        O147   1.273       .  A
C142       C1446   1.501       .  S
C143        C861   1.480       .  S
O145        C148   1.269       .  A
O146        C148   1.269       .  A
C148        C990   1.493       .  S
O149        C154   1.278       .  A
O150        C152   1.270       .  A
C151        O153   1.270       .  A
C151        C885   1.471       .  S
C152       C1413   1.493       .  S
C154       C1326   1.483       .  S
Fe155       O171   2.085       .  S
Fe155       O161   2.094       .  S
Fe155       O168   2.084       .  S
Fe155       O160   2.062       .  S
Fe155       O166   1.953       .  S
Fe156       O159   2.077       .  S
Fe156       O163   2.059       .  S
Fe156       O167   2.087       .  S
Fe156       O172   2.042       .  S
Fe156       O166   1.954       .  S
Fe157       O175   2.069       .  S
Fe157       O162   2.070       .  S
Fe157       O169   2.074       .  S
Fe157       O158   2.076       .  S
Fe157       O166   1.947       .  S
O158        C165   1.267       .  A
O159        C173   1.274       .  A
O160        C165   1.265       .  A
O161        C164   1.283       .  A
O162        C174   1.271       .  A
O163        C176   1.265       .  A
C164        O169   1.273       .  A
C164        C846   1.500       .  S
C165       C1278   1.474       .  S
O167        C170   1.277       .  A
O168        C170   1.276       .  A
C170       C1398   1.504       .  S
O171        C176   1.269       .  A
O172        C174   1.264       .  A
C173        O175   1.273       .  A
C173       C1293   1.479       .  S
C174        C894   1.481       .  S
C176        C942   1.488       .  S
Fe177       O193   2.090       .  S
Fe177       O183   2.095       .  S
Fe177       O190   2.084       .  S
Fe177       O182   2.056       .  S
Fe177       O188   1.966       .  S
Fe178       O181   2.068       .  S
Fe178       O185   2.046       .  S
Fe178       O189   2.070       .  S
Fe178       O194   2.045       .  S
Fe178       O188   1.965       .  S
Fe179       O197   2.068       .  S
Fe179       O184   2.067       .  S
Fe179       O191   2.063       .  S
Fe179       O180   2.082       .  S
Fe179       O188   1.962       .  S
O180        C187   1.271       .  A
O181        C195   1.271       .  A
O182        C187   1.267       .  A
O183        C186   1.280       .  A
O184        C196   1.267       .  A
O185        C198   1.264       .  A
C186        O191   1.270       .  A
C186       C1374   1.494       .  S
C187        C750   1.482       .  S
O189        C192   1.271       .  A
O190        C192   1.275       .  A
C192        C717   1.488       .  S
O193        C198   1.271       .  A
O194        C196   1.264       .  A
C195        O197   1.273       .  A
C195        C774   1.481       .  S
C196        C813   1.483       .  S
C198        C798   1.487       .  S
Fe199       O215   2.107       .  S
Fe199       O205   2.059       .  S
Fe199       O212   2.072       .  S
Fe199       O204   2.108       .  S
Fe199       O210   1.957       .  S
Fe200       O203   2.053       .  S
Fe200       O207   2.055       .  S
Fe200       O211   2.065       .  S
Fe200       O216   2.070       .  S
Fe200       O210   1.959       .  S
Fe201       O219   2.063       .  S
Fe201       O206   2.089       .  S
Fe201       O213   2.086       .  S
Fe201       O202   2.050       .  S
Fe201       O210   1.953       .  S
O202        C209   1.271       .  A
O203        C217   1.266       .  A
O204        C209   1.280       .  A
O205        C208   1.267       .  A
O206        C218   1.275       .  A
O207        C220   1.270       .  A
C208        O213   1.271       .  A
C208        C654   1.485       .  S
C209       C1254   1.489       .  S
O211        C214   1.266       .  A
O212        C214   1.270       .  A
C214        C702   1.496       .  S
O215        C220   1.279       .  A
O216        C218   1.274       .  A
C217        O219   1.268       .  A
C217        C822   1.463       .  S
C218        C630   1.489       .  S
C220        C669   1.491       .  S
Fe221       O237   2.123       .  S
Fe221       O227   2.049       .  S
Fe221       O234   2.073       .  S
Fe221       O226   2.122       .  S
Fe221       O232   1.963       .  S
Fe222       O225   2.048       .  S
Fe222       O229   2.058       .  S
Fe222       O233   2.053       .  S
Fe222       O238   2.060       .  S
Fe222       O232   1.970       .  S
Fe223       O241   2.062       .  S
Fe223       O228   2.082       .  S
Fe223       O235   2.075       .  S
Fe223       O224   2.049       .  S
Fe223       O232   1.966       .  S
O224        C231   1.272       .  A
O225        C239   1.265       .  A
O226        C231   1.286       .  A
O227        C230   1.263       .  A
O228        C240   1.273       .  A
O229        C242   1.272       .  A
C230        O235   1.266       .  A
C230        C549   1.484       .  S
C231       C1125   1.494       .  S
O233        C236   1.263       .  A
O234        C236   1.265       .  A
C236        C789   1.485       .  S
O237        C242   1.286       .  A
O238        C240   1.269       .  A
C239        O241   1.268       .  A
C239        C597   1.463       .  S
C240        C534   1.487       .  S
C242        C573   1.493       .  S
Fe243       O259   2.072       .  S
Fe243       O249   2.081       .  S
Fe243       O256   2.075       .  S
Fe243       O248   2.056       .  S
Fe243       O254   1.970       .  S
Fe244       O247   2.068       .  S
Fe244       O251   2.056       .  S
Fe244       O255   2.078       .  S
Fe244       O260   2.048       .  S
Fe244       O254   1.970       .  S
Fe245       O263   2.068       .  S
Fe245       O250   2.055       .  S
Fe245       O257   2.056       .  S
Fe245       O246   2.075       .  S
Fe245       O254   1.967       .  S
O246        C253   1.267       .  A
O247        C261   1.271       .  A
O248        C253   1.263       .  A
O249        C252   1.277       .  A
O250        C262   1.267       .  A
O251        C264   1.263       .  A
C252        O257   1.271       .  A
C252       C1038   1.479       .  S
C253        C477   1.477   1_545  S
O255        C258   1.275       .  A
O256        C258   1.273       .  A
C258        C453   1.501       .  S
O259        C264   1.266       .  A
O260        C262   1.266       .  A
C261        O263   1.271       .  A
C261        C510   1.487       .  S
C262        C606   1.468       .  S
C264        C693   1.479       .  S
Fe265       O281   2.071       .  S
Fe265       O271   2.105       .  S
Fe265       O278   2.098       .  S
Fe265       O270   2.048       .  S
Fe265       O276   1.964       .  S
Fe266       O269   2.068       .  S
Fe266       O273   2.063       .  S
Fe266       O277   2.058       .  S
Fe266       O282   2.063       .  S
Fe266       O276   1.964       .  S
Fe267       O285   2.077       .  S
Fe267       O272   2.058       .  S
Fe267       O279   2.048       .  S
Fe267       O268   2.079       .  S
Fe267       O276   1.962       .  S
O268        C275   1.267       .  A
O269        C283   1.271       .  A
O270        C275   1.265       .  A
O271        C274   1.280       .  A
O272        C284   1.267       .  A
O273        C286   1.268       .  A
C274        O279   1.270       .  A
C274        C957   1.479       .  S
C275        C525   1.487       .  S
O277        C280   1.272       .  A
O278        C280   1.277       .  A
C280        C462   1.496       .  S
O281        C286   1.268       .  A
O282        C284   1.267       .  A
C283        O285   1.271       .  A
C283        C558   1.490       .  S
C284        C438   1.462       .  S
C286        C405   1.496       .  S
Fe287       O303   2.083       .  S
Fe287       O293   2.070       .  S
Fe287       O300   2.100       .  S
Fe287       O292   2.100       .  S
Fe287       O298   1.958       .  S
Fe288       O291   2.038       .  S
Fe288       O295   2.086       .  S
Fe288       O299   2.050       .  S
Fe288       O304   2.089       .  S
Fe288       O298   1.952       .  S
Fe289       O307   2.084       .  S
Fe289       O294   2.061       .  S
Fe289       O301   2.072       .  S
Fe289       O290   2.069       .  S
Fe289       O298   1.953       .  S
O290        C297   1.272       .  A
O291        C305   1.264       .  A
O292        C297   1.282       .  A
O293        C296   1.269       .  A
O294        C306   1.270       .  A
O295        C308   1.274       .  A
C296        O301   1.271       .  A
C296        C501   1.478       .  S
C297        C918   1.499       .  S
O299        C302   1.265       .  A
O300        C302   1.273       .  A
C302        C390   1.490       .  S
O303        C308   1.276       .  A
O304        C306   1.275       .  A
C305        O307   1.271       .  A
C305        C429   1.486       .  S
C306        C486   1.490       .  S
C308        C582   1.497       .  S
Fe309       O325   2.082       .  S
Fe309       O315   2.052   1_565  S
Fe309       O322   2.073       .  S
Fe309       O314   2.092       .  S
Fe309       O320   1.958       .  S
Fe310       O313   2.044       .  S
Fe310       O317   2.083       .  S
Fe310       O321   2.060       .  S
Fe310       O326   2.066       .  S
Fe310       O320   1.964       .  S
Fe311       O329   2.060       .  S
Fe311       O316   2.071       .  S
Fe311       O323   2.073       .  S
Fe311       O312   2.069       .  S
Fe311       O320   1.957       .  S
O312        C319   1.275       .  A
O313        C327   1.264       .  A
O314        C319   1.282       .  A
O315        C318   1.261       .  A
O316        C328   1.273       .  A
O317        C330   1.275       .  A
C318        O323   1.266   1_545  A
C318        C765   1.484       .  S
C319        C870   1.480       .  S
O321        C324   1.264       .  A
O322        C324   1.266       .  A
C324        C414   1.485       .  S
O325        C330   1.277       .  A
O326        C328   1.271       .  A
C327        O329   1.268       .  A
C327        C357   1.477       .  S
C328        C741   1.481       .  S
C330        C678   1.483       .  S
Fe331       O347   2.075       .  S
Fe331       O337   2.121       .  S
Fe331       O344   2.100       .  S
Fe331       O336   2.060       .  S
Fe331       O342   1.955       .  S
Fe332       O335   2.072       .  S
Fe332       O339   2.068       .  S
Fe332       O343   2.058       .  S
Fe332       O348   2.058       .  S
Fe332       O342   1.959       .  S
Fe333       O351   2.082       .  S
Fe333       O338   2.061       .  S
Fe333       O345   2.042       .  S
Fe333       O334   2.088       .  S
Fe333       O342   1.955       .  S
O334        C341   1.268       .  A
O335        C349   1.270       .  A
O336        C341   1.263       .  A
O337        C340   1.285       .  A
O338        C350   1.272       .  A
O339        C352   1.269       .  A
C340        O345   1.274       .  A
C340        C837   1.493       .  S
C341        C621   1.486       .  S
O343        C346   1.270       .  A
O344        C346   1.279       .  A
C346        C726   1.490       .  S
O347        C352   1.271       .  A
O348        C350   1.270       .  A
C349        O351   1.271       .  A
C349        C645   1.495       .  S
C350        C366   1.457       .  S
C352        C381   1.488       .  S
C353        C354   1.397       .  A
C353        C358   1.393       .  A
C353        H363   1.085   1_556  S
C354        C359   1.466   1_556  S
C354        C355   1.409       .  A
C355        C356   1.395       .  A
C355        S360   1.805       .  S
C356        C357   1.406       .  A
C356        H361   1.084       .  S
C357        C358   1.417       .  A
C358        S362   1.802       .  S
C359        C364   1.405       .  A
C359        C368   1.404       .  A
S360        H376   1.405   1_556  S
S362        H373   1.402       .  S
C364        C365   1.394       .  A
C364        S369   1.808       .  S
C365        C366   1.404       .  A
C365        H370   1.084       .  S
C366        C367   1.408       .  A
C367        C368   1.398       .  A
C367        S371   1.804       .  S
C368        H372   1.084       .  S
S369        H374   1.407       .  S
S371        H375   1.406       .  S
C377        C378   1.405       .  A
C377        C382   1.404       .  A
C377        H387   1.084       .  S
C378        C383   1.491   1_655  S
C378        C379   1.414       .  A
C379        C380   1.402       .  A
C379        S384   1.804       .  S
C380        C381   1.406       .  A
C380        H385   1.084       .  S
C381        C382   1.416       .  A
C382        S386   1.803       .  S
C383        C388   1.411       .  A
C383        C392   1.407       .  A
S384        H400   1.406   1_655  S
S386        H397   1.407       .  S
C388        C389   1.401       .  A
C388        S393   1.809       .  S
C389        C390   1.407       .  A
C389        H394   1.082       .  S
C390        C391   1.415       .  A
C391        C392   1.407       .  A
C391        S395   1.802       .  S
C392        H396   1.083       .  S
S393        H398   1.407       .  S
S395        H399   1.407       .  S
C401        C402   1.403       .  A
C401        C406   1.406       .  A
C401        H411   1.083       .  S
C402        C407   1.483       .  S
C402        C403   1.411       .  A
C403        C404   1.397       .  A
C403        S408   1.806       .  S
C404        C405   1.409       .  A
C404        H409   1.083       .  S
C405        C406   1.419       .  A
C406        S410   1.802       .  S
C407        C412   1.410       .  A
C407        C416   1.400       .  A
S408        H424   1.405       .  S
S410        H421   1.408       .  S
C412        C413   1.407       .  A
C412        S417   1.805       .  S
C413        C414   1.407       .  A
C413        H418   1.083       .  S
C414        C415   1.418       .  A
C415        C416   1.398       .  A
C415        S419   1.803       .  S
C416        H420   1.084       .  S
S417        H422   1.407       .  S
S419        H423   1.406       .  S
C425        C426   1.404       .  A
C425        C430   1.402       .  A
C425        H435   1.084       .  S
C426        C431   1.476   1_554  S
C426        C427   1.407       .  A
C427        C428   1.393       .  A
C427        S432   1.806   1_554  S
C428        C429   1.410       .  A
C428        H433   1.084       .  S
C429        C430   1.416       .  A
C430        S434   1.801       .  S
C431        C436   1.411       .  A
C431        C440   1.401       .  A
S432        H448   1.406       .  S
S434        H445   1.408       .  S
C436        C437   1.403       .  A
C436        S441   1.807   1_556  S
C437        C438   1.402       .  A
C437        H442   1.083       .  S
C438        C439   1.410       .  A
C439        C440   1.394       .  A
C439        S443   1.802       .  S
C440        H444   1.084       .  S
S441        H446   1.407       .  S
S443        H447   1.404       .  S
C449        C450   1.405       .  A
C449        C454   1.402       .  A
C449        H459   1.083       .  S
C450        C455   1.495   1_554  S
C450        C451   1.413   1_565  A
C451        C452   1.402       .  A
C451        S456   1.804       .  S
C452        C453   1.412       .  A
C452        H457   1.083       .  S
C453        C454   1.420   1_545  A
C454        S458   1.801       .  S
C455        C460   1.412       .  A
C455        C464   1.405   1_565  A
S456        H472   1.406   1_554  S
S458        H469   1.408       .  S
C460        C461   1.405       .  A
C460        S465   1.808   1_556  S
C461        C462   1.409       .  A
C461        H466   1.082       .  S
C462        C463   1.418       .  A
C463        C464   1.403   1_565  A
C463        S467   1.798   1_565  S
C464        H468   1.084       .  S
S465        H470   1.407   1_554  S
S467        H471   1.407       .  S
C473        C474   1.406       .  A
C473        C478   1.404       .  A
C473        H483   1.084       .  S
C474        C479   1.483       .  S
C474        C475   1.411       .  A
C475        C476   1.399       .  A
C475        S480   1.804       .  S
C476        C477   1.405       .  A
C476        H481   1.084       .  S
C477        C478   1.412       .  A
C478        S482   1.801       .  S
C479        C484   1.409       .  A
C479        C488   1.398       .  A
S480        H496   1.404       .  S
S482        H493   1.403   1_565  S
C484        C485   1.409       .  A
C484        S489   1.805       .  S
C485        C486   1.409       .  A
C485        H490   1.083       .  S
C486        C487   1.419       .  A
C487        C488   1.397       .  A
C487        S491   1.803       .  S
C488        H492   1.084       .  S
S489        H494   1.407       .  S
S491        H495   1.407       .  S
C497        C498   1.403       .  A
C497        C502   1.403       .  A
C497        H507   1.084       .  S
C498        C503   1.482       .  S
C498        C499   1.412       .  A
C499        C500   1.399       .  A
C499        S504   1.805       .  S
C500        C501   1.404       .  A
C500        H505   1.084       .  S
C501        C502   1.414       .  A
C502        S506   1.802       .  S
C503        C508   1.407       .  A
C503        C512   1.403       .  A
S504        H520   1.405       .  S
S506        H517   1.405       .  S
C508        C509   1.403       .  A
C508        S513   1.806       .  S
C509        C510   1.409       .  A
C509        H514   1.082       .  S
C510        C511   1.416       .  A
C511        C512   1.402       .  A
C511        S515   1.802       .  S
C512        H516   1.084       .  S
S513        H518   1.407       .  S
S515        H519   1.407       .  S
C521        C522   1.402       .  A
C521        C526   1.403   1_545  A
C521        H531   1.084       .  S
C522        C527   1.480       .  S
C522        C523   1.411       .  A
C523        C524   1.396       .  A
C523        S528   1.806       .  S
C524        C525   1.406   1_545  A
C524        H529   1.082       .  S
C525        C526   1.418       .  A
C526        S530   1.799       .  S
C527        C532   1.408       .  A
C527        C536   1.399       .  A
S528        H544   1.405       .  S
S530        H541   1.407       .  S
C532        C533   1.403       .  A
C532        S537   1.807       .  S
C533        C534   1.407       .  A
C533        H538   1.083       .  S
C534        C535   1.419       .  A
C535        C536   1.401       .  A
C535        S539   1.800       .  S
C536        H540   1.084       .  S
S537        H542   1.407       .  S
S539        H543   1.407       .  S
C545        C546   1.403       .  A
C545        C550   1.405       .  A
C545        H555   1.083       .  S
C546        C551   1.483       .  S
C546        C547   1.411       .  A
C547        C548   1.395       .  A
C547        S552   1.803       .  S
C548        C549   1.403       .  A
C548        H553   1.080       .  S
C549        C550   1.418       .  A
C550        S554   1.802       .  S
C551        C556   1.407       .  A
C551        C560   1.400       .  A
S552        H568   1.406       .  S
S554        H565   1.407       .  S
C556        C557   1.407       .  A
C556        S561   1.805       .  S
C557        C558   1.409       .  A
C557        H562   1.082       .  S
C558        C559   1.417       .  A
C559        C560   1.402       .  A
C559        S563   1.808       .  S
C560        H564   1.083       .  S
S561        H566   1.407       .  S
S563        H567   1.407       .  S
C569        C570   1.404       .  A
C569        C574   1.404       .  A
C569        H579   1.084       .  S
C570        C575   1.497   1_556  S
C570        C571   1.415       .  A
C571        C572   1.409       .  A
C571        S576   1.804   1_556  S
C572        C573   1.409       .  A
C572        H577   1.084       .  S
C573        C574   1.414       .  A
C574        S578   1.798       .  S
C575        C580   1.413       .  A
C575        C584   1.404       .  A
S576        H592   1.405       .  S
S578        H589   1.406       .  S
C580        C581   1.408       .  A
C580        S585   1.807       .  S
C581        C582   1.408       .  A
C581        H586   1.083       .  S
C582        C583   1.419       .  A
C583        C584   1.408       .  A
C583        S587   1.803       .  S
C584        H588   1.084       .  S
S585        H590   1.407       .  S
S587        H591   1.407       .  S
C593        C594   1.406       .  A
C593        C598   1.398       .  A
C593        H603   1.084   1_556  S
C594        C599   1.469   1_556  S
C594        C595   1.409       .  A
C595        C596   1.391       .  A
C595        S600   1.806       .  S
C596        C597   1.405       .  A
C596        H601   1.085       .  S
C597        C598   1.408       .  A
C598        S602   1.803       .  S
C599        C604   1.409       .  A
C599        C608   1.398       .  A
S600        H616   1.405       .  S
S602        H613   1.406       .  S
C604        C605   1.401       .  A
C604        S609   1.807   1_554  S
C605        C606   1.405       .  A
C605        H610   1.082       .  S
C606        C607   1.414       .  A
C607        C608   1.392       .  A
C607        S611   1.804       .  S
C608        H612   1.084       .  S
S609        H614   1.407       .  S
S611        H615   1.406       .  S
C617        C618   1.406       .  A
C617        C622   1.408       .  A
C617        H627   1.082       .  S
C618        C623   1.491       .  S
C618        C619   1.413       .  A
C619        C620   1.403       .  A
C619        S624   1.803       .  S
C620        C621   1.405       .  A
C620        H625   1.084       .  S
C621        C622   1.412       .  A
C622        S626   1.806       .  S
C623        C628   1.410       .  A
C623        C632   1.404       .  A
S624        H640   1.406       .  S
S626        H637   1.407       .  S
C628        C629   1.408       .  A
C628        S633   1.805       .  S
C629        C630   1.408       .  A
C629        H634   1.083       .  S
C630        C631   1.416       .  A
C631        C632   1.403       .  A
C631        S635   1.803       .  S
C632        H636   1.084       .  S
S633        H638   1.407       .  S
S635        H639   1.407       .  S
C641        C642   1.402       .  A
C641        C646   1.406       .  A
C641        H651   1.084       .  S
C642        C647   1.486       .  S
C642        C643   1.411       .  A
C643        C644   1.400       .  A
C643        S648   1.805       .  S
C644        C645   1.408       .  A
C644        H649   1.084       .  S
C645        C646   1.421       .  A
C646        S650   1.800       .  S
C647        C652   1.409       .  A
C647        C656   1.403       .  A
S648        H664   1.405       .  S
S650        H661   1.407       .  S
C652        C653   1.407   1_565  A
C652        S657   1.805       .  S
C653        C654   1.408       .  A
C653        H658   1.083       .  S
C654        C655   1.414       .  A
C655        C656   1.401   1_545  A
C655        S659   1.803       .  S
C656        H660   1.084       .  S
S657        H662   1.407   1_565  S
S659        H663   1.407       .  S
C665        C666   1.402       .  A
C665        C670   1.404       .  A
C665        H675   1.084       .  S
C666        C671   1.489   1_554  S
C666        C667   1.414       .  A
C667        C668   1.403       .  A
C667        S672   1.803   1_545  S
C668        C669   1.405       .  A
C668        H673   1.082       .  S
C669        C670   1.419       .  A
C670        S674   1.803       .  S
C671        C676   1.411       .  A
C671        C680   1.400       .  A
S672        H688   1.406       .  S
S674        H685   1.407       .  S
C676        C677   1.411   1_545  A
C676        S681   1.804       .  S
C677        C678   1.407       .  A
C677        H682   1.082       .  S
C678        C679   1.417   1_565  A
C679        C680   1.399       .  A
C679        S683   1.806       .  S
C680        H684   1.084       .  S
S681        H686   1.407   1_545  S
S683        H687   1.403   1_545  S
C689        C690   1.403       .  A
C689        C694   1.397       .  A
C689        H699   1.084       .  S
C690        C695   1.486       .  S
C690        C691   1.414       .  A
C691        C692   1.403       .  A
C691        S696   1.803       .  S
C692        C693   1.405       .  A
C692        H697   1.084       .  S
C693        C694   1.414       .  A
C694        S698   1.801       .  S
C695        C700   1.409       .  A
C695        C704   1.400       .  A
S696        H712   1.406       .  S
S698        H709   1.406       .  S
C700        C701   1.405       .  A
C700        S705   1.806       .  S
C701        C702   1.410       .  A
C701        H706   1.082       .  S
C702        C703   1.422       .  A
C703        C704   1.399       .  A
C703        S707   1.803       .  S
C704        H708   1.084       .  S
S705        H710   1.407       .  S
S707        H711   1.408       .  S
C713        C714   1.403       .  A
C713        C718   1.405       .  A
C713        H723   1.084       .  S
C714        C719   1.488   1_556  S
C714        C715   1.414       .  A
C715        C716   1.402       .  A
C715        S720   1.805       .  S
C716        C717   1.406       .  A
C716        H721   1.084       .  S
C717        C718   1.417       .  A
C718        S722   1.804       .  S
C719        C724   1.410       .  A
C719        C728   1.402       .  A
S720        H736   1.405       .  S
S722        H733   1.407       .  S
C724        C725   1.405       .  A
C724        S729   1.807       .  S
C725        C726   1.405       .  A
C725        H730   1.083       .  S
C726        C727   1.417       .  A
C727        C728   1.409       .  A
C727        S731   1.808       .  S
C728        H732   1.083       .  S
S729        H734   1.406       .  S
S731        H735   1.407       .  S
C737        C738   1.398       .  A
C737        C742   1.394       .  A
C737        H747   1.084       .  S
C738        C743   1.477       .  S
C738        C739   1.413       .  A
C739        C740   1.404       .  A
C739        S744   1.805       .  S
C740        C741   1.407       .  A
C740        H745   1.083       .  S
C741        C742   1.416       .  A
C742        S746   1.801       .  S
C743        C748   1.404       .  A
C743        C752   1.405       .  A
S744        H760   1.404       .  S
S746        H757   1.404       .  S
C748        C749   1.398       .  A
C748        S753   1.807       .  S
C749        C750   1.408       .  A
C749        H754   1.083       .  S
C750        C751   1.412       .  A
C751        C752   1.403       .  A
C751        S755   1.795       .  S
C752        H756   1.084       .  S
S753        H758   1.407       .  S
S755        H759   1.406       .  S
C761        C762   1.399       .  A
C761        C766   1.393       .  A
C761        H771   1.085       .  S
C762        C767   1.481       .  S
C762        C763   1.412       .  A
C763        C764   1.404       .  A
C763        S768   1.803       .  S
C764        C765   1.407       .  A
C764        H769   1.084       .  S
C765        C766   1.419       .  A
C766        S770   1.804       .  S
C767        C772   1.411       .  A
C767        C776   1.399       .  A
S768        H784   1.406       .  S
S770        H781   1.400       .  S
C772        C773   1.403       .  A
C772        S777   1.807       .  S
C773        C774   1.404       .  A
C773        H778   1.083       .  S
C774        C775   1.419       .  A
C775        C776   1.398       .  A
C775        S779   1.803       .  S
C776        H780   1.084       .  S
S777        H782   1.407       .  S
S779        H783   1.406       .  S
C785        C786   1.405       .  A
C785        C790   1.406       .  A
C785        H795   1.084       .  S
C786        C791   1.484   1_455  S
C786        C787   1.412       .  A
C787        C788   1.396       .  A
C787        S792   1.805       .  S
C788        C789   1.405       .  A
C788        H793   1.085       .  S
C789        C790   1.416       .  A
C790        S794   1.802       .  S
C791        C796   1.410       .  A
C791        C800   1.401       .  A
S792        H808   1.406   1_455  S
S794        H805   1.407       .  S
C796        C797   1.406       .  A
C796        S801   1.806       .  S
C797        C798   1.407       .  A
C797        H802   1.083       .  S
C798        C799   1.417       .  A
C799        C800   1.400       .  A
C799        S803   1.804       .  S
C800        H804   1.084       .  S
S801        H806   1.407       .  S
S803        H807   1.407       .  S
C809        C810   1.401   1_556  A
C809        C814   1.396       .  A
C809        H819   1.085       .  S
C810        C815   1.473       .  S
C810        C811   1.407   1_554  A
C811        C812   1.395       .  A
C811        S816   1.804   1_556  S
C812        C813   1.409       .  A
C812        H817   1.084       .  S
C813        C814   1.416       .  A
C814        S818   1.800       .  S
C815        C820   1.407       .  A
C815        C824   1.406       .  A
S816        H832   1.406       .  S
S818        H829   1.406       .  S
C820        C821   1.395       .  A
C820        S825   1.808       .  S
C821        C822   1.403       .  A
C821        H826   1.084       .  S
C822        C823   1.405       .  A
C823        C824   1.403       .  A
C823        S827   1.805       .  S
C824        H828   1.083       .  S
S825        H830   1.407       .  S
S827        H831   1.407       .  S
C833        C834   1.407       .  A
C833        C838   1.408       .  A
C833        H843   1.084       .  S
C834        C839   1.487       .  S
C834        C835   1.409       .  A
C835        C836   1.396       .  A
C835        S840   1.805       .  S
C836        C837   1.410       .  A
C836        H841   1.085       .  S
C837        C838   1.416       .  A
C838        S842   1.801       .  S
C839        C844   1.410       .  A
C839        C848   1.396       .  A
S840        H856   1.405       .  S
S842        H853   1.407       .  S
C844        C845   1.410       .  A
C844        S849   1.806       .  S
C845        C846   1.409       .  A
C845        H850   1.083       .  S
C846        C847   1.427       .  A
C847        C848   1.402       .  A
C847        S851   1.811       .  S
C848        H852   1.084       .  S
S849        H854   1.406       .  S
S851        H855   1.407       .  S
C857        C858   1.405       .  A
C857        C862   1.403       .  A
C857        H867   1.083       .  S
C858        C863   1.486       .  S
C858        C859   1.412       .  A
C859        C860   1.401       .  A
C859        S864   1.804   1_565  S
C860        C861   1.405       .  A
C860        H865   1.084       .  S
C861        C862   1.413       .  A
C862        S866   1.802       .  S
C863        C868   1.413       .  A
C863        C872   1.400       .  A
S864        H880   1.406   1_545  S
S866        H877   1.407       .  S
C868        C869   1.409       .  A
C868        S873   1.805       .  S
C869        C870   1.403       .  A
C869        H874   1.083       .  S
C870        C871   1.415       .  A
C871        C872   1.401       .  A
C871        S875   1.810       .  S
C872        H876   1.083       .  S
S873        H878   1.407       .  S
S875        H879   1.407   1_565  S
C881        C882   1.398       .  A
C881        C886   1.392       .  A
C881        H891   1.084       .  S
C882        C887   1.477       .  S
C882        C883   1.416       .  A
C883        C884   1.403       .  A
C883        S888   1.805       .  S
C884        C885   1.402       .  A
C884        H889   1.083       .  S
C885        C886   1.412       .  A
C886        S890   1.797       .  S
C887        C892   1.408       .  A
C887        C896   1.402       .  A
S888        H904   1.406       .  S
S890        H901   1.405       .  S
C892        C893   1.399       .  A
C892        S897   1.808       .  S
C893        C894   1.406       .  A
C893        H898   1.082       .  S
C894        C895   1.418       .  A
C895        C896   1.402       .  A
C895        S899   1.811       .  S
C896        H900   1.083       .  S
S897        H902   1.407       .  S
S899        H903   1.407       .  S
C905        C906   1.403       .  A
C905        C910   1.401       .  A
C905        H915   1.084       .  S
C906        C911   1.495       .  S
C906        C907   1.417       .  A
C907        C908   1.408       .  A
C907        S912   1.804       .  S
C908        C909   1.407       .  A
C908        H913   1.084       .  S
C909        C910   1.417       .  A
C910        S914   1.804       .  S
C911        C916   1.415       .  A
C911        C920   1.399       .  A
S912        H928   1.405       .  S
S914        H925   1.407       .  S
C916        C917   1.414       .  A
C916        S921   1.805       .  S
C917        C918   1.408       .  A
C917        H922   1.082       .  S
C918        C919   1.423       .  A
C919        C920   1.398       .  A
C919        S923   1.804       .  S
C920        H924   1.084       .  S
S921        H926   1.407       .  S
S923        H927   1.407       .  S
C929        C930   1.402       .  A
C929        C934   1.404       .  A
C929        H939   1.082       .  S
C930        C935   1.495       .  S
C930        C931   1.413       .  A
C931        C932   1.403       .  A
C931        S936   1.803       .  S
C932        C933   1.409       .  A
C932        H937   1.083       .  S
C933        C934   1.425       .  A
C934        S938   1.812       .  S
C935        C940   1.414       .  A
C935        C944   1.403       .  A
S936        H952   1.406       .  S
S938        H949   1.407       .  S
C940        C941   1.407       .  A
C940        S945   1.807       .  S
C941        C942   1.406       .  A
C941        H946   1.083       .  S
C942        C943   1.417       .  A
C943        C944   1.404       .  A
C943        S947   1.809       .  S
C944        H948   1.083       .  S
S945        H950   1.407       .  S
S947        H951   1.407       .  S
C953        C954   1.404       .  A
C953        C958   1.399       .  A
C953        H963   1.084       .  S
C954        C959   1.487       .  S
C954        C955   1.413       .  A
C955        C956   1.405       .  A
C955        S960   1.803       .  S
C956        C957   1.406       .  A
C956        H961   1.084       .  S
C957        C958   1.413       .  A
C958        S962   1.803       .  S
C959        C964   1.405       .  A
C959        C968   1.408       .  A
S960        H976   1.406       .  S
S962        H973   1.407       .  S
C964        C965   1.396       .  A
C964        S969   1.809       .  S
C965        C966   1.409       .  A
C965        H970   1.081       .  S
C966        C967   1.414       .  A
C967        C968   1.410       .  A
C967        S971   1.801       .  S
C968        H972   1.083       .  S
S969        H974   1.407       .  S
S971        H975   1.407       .  S
C977        C978   1.402       .  A
C977        C982   1.404       .  A
C977        H987   1.084       .  S
C978        C983   1.489   1_455  S
C978        C979   1.411       .  A
C979        C980   1.403       .  A
C979        S984   1.803       .  S
C980        C981   1.407       .  A
C980        H985   1.084       .  S
C981        C982   1.420       .  A
C982        S986   1.800       .  S
C983        C988   1.409       .  A
C983        C992   1.401       .  A
S984       H1000   1.407   1_455  S
S986        H997   1.407       .  S
C988        C989   1.410       .  A
C988        S993   1.804       .  S
C989        C990   1.409       .  A
C989        H994   1.083       .  S
C990        C991   1.419       .  A
C991        C992   1.403       .  A
C991        S995   1.811       .  S
C992        H996   1.083       .  S
S993        H998   1.407       .  S
S995        H999   1.407       .  S
C1001      C1002   1.408       .  A
C1001      C1006   1.400       .  A
C1001      H1011   1.084       .  S
C1002      C1007   1.480       .  S
C1002      C1003   1.413       .  A
C1003      C1004   1.393       .  A
C1003      S1008   1.806       .  S
C1004      C1005   1.401       .  A
C1004      H1009   1.085       .  S
C1005      C1006   1.407       .  A
C1006      S1010   1.805       .  S
C1007      C1012   1.412       .  A
C1007      C1016   1.401       .  A
S1008      H1024   1.406       .  S
S1010      H1021   1.405       .  S
C1012      C1013   1.403       .  A
C1012      S1017   1.807       .  S
C1013      C1014   1.404       .  A
C1013      H1018   1.083       .  S
C1014      C1015   1.415       .  A
C1015      C1016   1.394       .  A
C1015      S1019   1.805       .  S
C1016      H1020   1.084       .  S
S1017      H1022   1.406       .  S
S1019      H1023   1.408       .  S
C1025      C1026   1.396       .  A
C1025      C1030   1.391       .  A
C1025      H1035   1.084       .  S
C1026      C1031   1.481       .  S
C1026      C1027   1.418       .  A
C1027      C1028   1.408       .  A
C1027      S1032   1.804       .  S
C1028      C1029   1.404       .  A
C1028      H1033   1.083       .  S
C1029      C1030   1.417       .  A
C1030      S1034   1.802       .  S
C1031      C1036   1.408       .  A
C1031      C1040   1.404       .  A
S1032      H1048   1.405       .  S
S1034      H1045   1.405       .  S
C1036      C1037   1.402       .  A
C1036      S1041   1.807       .  S
C1037      C1038   1.407       .  A
C1037      H1042   1.082       .  S
C1038      C1039   1.413       .  A
C1039      C1040   1.400       .  A
C1039      S1043   1.799       .  S
C1040      H1044   1.084       .  S
S1041      H1046   1.406       .  S
S1043      H1047   1.407       .  S
C1049      C1050   1.404   1_565  A
C1049      C1054   1.402   1_565  A
C1049      H1059   1.084       .  S
C1050      C1055   1.488   1_545  S
C1050      C1051   1.411       .  A
C1051      C1052   1.402       .  A
C1051      S1056   1.803       .  S
C1052      C1053   1.407       .  A
C1052      H1057   1.084       .  S
C1053      C1054   1.416       .  A
C1054      S1058   1.800   1_545  S
C1055      C1060   1.407       .  A
C1055      C1064   1.404   1_565  A
S1056      H1072   1.406       .  S
S1058      H1069   1.407       .  S
C1060      C1061   1.404       .  A
C1060      S1065   1.807       .  S
C1061      C1062   1.411       .  A
C1061      H1066   1.082       .  S
C1062      C1063   1.419       .  A
C1063      C1064   1.404   1_565  A
C1063      S1067   1.799   1_565  S
C1064      H1068   1.084       .  S
S1065      H1070   1.407       .  S
S1067      H1071   1.407       .  S
C1073      C1074   1.397       .  A
C1073      C1078   1.390       .  A
C1073      H1083   1.085       .  S
C1074      C1079   1.473       .  S
C1074      C1075   1.414       .  A
C1075      C1076   1.405       .  A
C1075      S1080   1.806       .  S
C1076      C1077   1.406       .  A
C1076      H1081   1.084   1_565  S
C1077      C1078   1.417       .  A
C1078      S1082   1.804       .  S
C1079      C1084   1.406       .  A
C1079      C1088   1.404       .  A
S1080      H1096   1.402       .  S
S1082      H1093   1.406       .  S
C1084      C1085   1.396       .  A
C1084      S1089   1.809       .  S
C1085      C1086   1.405       .  A
C1085      H1090   1.084       .  S
C1086      C1087   1.413       .  A
C1087      C1088   1.403       .  A
C1087      S1091   1.802       .  S
C1088      H1092   1.084       .  S
S1089      H1094   1.407       .  S
S1091      H1095   1.405       .  S
C1097      C1098   1.399       .  A
C1097      C1102   1.398       .  A
C1097      H1107   1.084       .  S
C1098      C1103   1.474       .  S
C1098      C1099   1.412       .  A
C1099      C1100   1.398       .  A
C1099      S1104   1.805       .  S
C1100      C1101   1.404       .  A
C1100      H1105   1.084       .  S
C1101      C1102   1.416       .  A
C1102      S1106   1.803       .  S
C1103      C1108   1.406       .  A
C1103      C1112   1.400       .  A
S1104      H1120   1.406       .  S
S1106      H1117   1.407       .  S
C1108      C1109   1.402       .  A
C1108      S1113   1.805       .  S
C1109      C1110   1.407       .  A
C1109      H1114   1.082       .  S
C1110      C1111   1.415       .  A
C1111      C1112   1.396       .  A
C1111      S1115   1.804       .  S
C1112      H1116   1.084       .  S
S1113      H1118   1.407       .  S
S1115      H1119   1.407       .  S
C1121      C1122   1.403       .  A
C1121      C1126   1.400       .  A
C1121      H1131   1.084       .  S
C1122      C1127   1.498       .  S
C1122      C1123   1.418       .  A
C1123      C1124   1.409       .  A
C1123      S1128   1.804       .  S
C1124      C1125   1.407       .  A
C1124      H1129   1.083       .  S
C1125      C1126   1.419       .  A
C1126      S1130   1.805       .  S
C1127      C1132   1.416       .  A
C1127      C1136   1.400       .  A
S1128      H1144   1.406       .  S
S1130      H1141   1.408       .  S
C1132      C1133   1.414       .  A
C1132      S1137   1.805       .  S
C1133      C1134   1.408       .  A
C1133      H1138   1.082       .  S
C1134      C1135   1.421       .  A
C1135      C1136   1.398       .  A
C1135      S1139   1.804       .  S
C1136      H1140   1.084       .  S
S1137      H1142   1.407       .  S
S1139      H1143   1.407       .  S
C1145      C1146   1.400       .  A
C1145      C1150   1.399       .  A
C1145      H1155   1.085       .  S
C1146      C1151   1.481       .  S
C1146      C1147   1.414       .  A
C1147      C1148   1.402       .  A
C1147      S1152   1.805       .  S
C1148      C1149   1.403   1_545  A
C1148      H1153   1.084       .  S
C1149      C1150   1.414   1_565  A
C1150      S1154   1.799   1_545  S
C1151      C1156   1.408       .  A
C1151      C1160   1.401       .  A
S1152      H1168   1.405       .  S
S1154      H1165   1.404       .  S
C1156      C1157   1.402       .  A
C1156      S1161   1.807       .  S
C1157      C1158   1.409       .  A
C1157      H1162   1.082       .  S
C1158      C1159   1.420       .  A
C1159      C1160   1.402       .  A
C1159      S1163   1.803       .  S
C1160      H1164   1.084       .  S
S1161      H1166   1.407       .  S
S1163      H1167   1.408       .  S
C1169      C1170   1.401       .  A
C1169      C1174   1.401       .  A
C1169      H1179   1.084       .  S
C1170      C1175   1.484       .  S
C1170      C1171   1.413       .  A
C1171      C1172   1.400       .  A
C1171      S1176   1.804       .  S
C1172      C1173   1.405       .  A
C1172      H1177   1.084       .  S
C1173      C1174   1.419       .  A
C1174      S1178   1.800       .  S
C1175      C1180   1.410       .  A
C1175      C1184   1.402       .  A
S1176      H1192   1.407       .  S
S1178      H1189   1.405       .  S
C1180      C1181   1.407       .  A
C1180      S1185   1.805       .  S
C1181      C1182   1.405       .  A
C1181      H1186   1.083       .  S
C1182      C1183   1.413       .  A
C1183      C1184   1.400       .  A
C1183      S1187   1.807       .  S
C1184      H1188   1.083       .  S
S1185      H1190   1.407       .  S
S1187      H1191   1.407       .  S
C1193      C1194   1.403       .  A
C1193      C1198   1.400       .  A
C1193      H1203   1.083       .  S
C1194      C1199   1.491       .  S
C1194      C1195   1.417       .  A
C1195      C1196   1.407       .  A
C1195      S1200   1.803       .  S
C1196      C1197   1.405       .  A
C1196      H1201   1.084       .  S
C1197      C1198   1.411       .  A
C1198      S1202   1.808       .  S
C1199      C1204   1.416       .  A
C1199      C1208   1.402       .  A
S1200      H1216   1.406       .  S
S1202      H1213   1.406       .  S
C1204      C1205   1.406       .  A
C1204      S1209   1.808       .  S
C1205      C1206   1.403       .  A
C1205      H1210   1.083       .  S
C1206      C1207   1.417       .  A
C1207      C1208   1.400       .  A
C1207      S1211   1.805       .  S
C1208      H1212   1.084       .  S
S1209      H1214   1.407       .  S
S1211      H1215   1.408       .  S
C1217      C1218   1.400       .  A
C1217      C1222   1.394       .  A
C1217      H1227   1.084       .  S
C1218      C1223   1.472       .  S
C1218      C1219   1.412       .  A
C1219      C1220   1.399       .  A
C1219      S1224   1.805       .  S
C1220      C1221   1.402       .  A
C1220      H1225   1.084       .  S
C1221      C1222   1.411       .  A
C1222      S1226   1.802       .  S
C1223      C1228   1.405       .  A
C1223      C1232   1.403       .  A
S1224      H1240   1.405       .  S
S1226      H1237   1.404       .  S
C1228      C1229   1.396       .  A
C1228      S1233   1.808       .  S
C1229      C1230   1.406       .  A
C1229      H1234   1.082       .  S
C1230      C1231   1.413       .  A
C1231      C1232   1.400       .  A
C1231      S1235   1.803       .  S
C1232      H1236   1.083       .  S
S1233      H1238   1.407       .  S
S1235      H1239   1.406       .  S
C1241      C1242   1.407       .  A
C1241      C1246   1.407       .  A
C1241      H1251   1.084       .  S
C1242      C1247   1.492       .  S
C1242      C1243   1.411       .  A
C1243      C1244   1.399       .  A
C1243      S1248   1.805       .  S
C1244      C1245   1.409       .  A
C1244      H1249   1.084       .  S
C1245      C1246   1.417       .  A
C1246      S1250   1.800       .  S
C1247      C1252   1.408       .  A
C1247      C1256   1.408       .  A
S1248      H1264   1.406       .  S
S1250      H1261   1.407       .  S
C1252      C1253   1.402       .  A
C1252      S1257   1.807       .  S
C1253      C1254   1.408       .  A
C1253      H1258   1.083       .  S
C1254      C1255   1.414       .  A
C1255      C1256   1.407       .  A
C1255      S1259   1.802       .  S
C1256      H1260   1.084       .  S
S1257      H1262   1.407       .  S
S1259      H1263   1.407       .  S
C1265      C1266   1.402       .  A
C1265      C1270   1.403       .  A
C1265      H1275   1.084       .  S
C1266      C1271   1.481       .  S
C1266      C1267   1.413       .  A
C1267      C1268   1.399       .  A
C1267      S1272   1.807       .  S
C1268      C1269   1.406       .  A
C1268      H1273   1.084       .  S
C1269      C1270   1.416       .  A
C1270      S1274   1.803       .  S
C1271      C1276   1.412       .  A
C1271      C1280   1.400       .  A
S1272      H1288   1.405       .  S
S1274      H1285   1.407       .  S
C1276      C1277   1.407       .  A
C1276      S1281   1.805       .  S
C1277      C1278   1.402       .  A
C1277      H1282   1.083       .  S
C1278      C1279   1.414       .  A
C1279      C1280   1.397       .  A
C1279      S1283   1.804       .  S
C1280      H1284   1.084       .  S
S1281      H1286   1.407       .  S
S1283      H1287   1.406       .  S
C1289      C1290   1.404       .  A
C1289      C1294   1.402       .  A
C1289      H1299   1.084       .  S
C1290      C1295   1.483       .  S
C1290      C1291   1.412       .  A
C1291      C1292   1.400       .  A
C1291      S1296   1.804       .  S
C1292      C1293   1.406       .  A
C1292      H1297   1.084       .  S
C1293      C1294   1.412       .  A
C1294      S1298   1.802       .  S
C1295      C1300   1.412       .  A
C1295      C1304   1.403       .  A
S1296      H1312   1.405       .  S
S1298      H1309   1.407       .  S
C1300      C1301   1.404       .  A
C1300      S1305   1.808       .  S
C1301      C1302   1.403       .  A
C1301      H1306   1.082       .  S
C1302      C1303   1.413       .  A
C1303      C1304   1.401       .  A
C1303      S1307   1.803   1_565  S
C1304      H1308   1.084       .  S
S1305      H1310   1.407       .  S
S1307      H1311   1.406       .  S
C1313      C1314   1.402   1_545  A
C1313      C1318   1.403       .  A
C1313      H1323   1.084       .  S
C1314      C1319   1.484       .  S
C1314      C1315   1.412       .  A
C1315      C1316   1.400       .  A
C1315      S1320   1.805       .  S
C1316      C1317   1.406   1_565  A
C1316      H1321   1.084       .  S
C1317      C1318   1.417       .  A
C1318      S1322   1.801       .  S
C1319      C1324   1.409       .  A
C1319      C1328   1.401       .  A
S1320      H1336   1.404       .  S
S1322      H1333   1.407       .  S
C1324      C1325   1.407       .  A
C1324      S1329   1.805       .  S
C1325      C1326   1.407       .  A
C1325      H1330   1.082       .  S
C1326      C1327   1.414       .  A
C1327      C1328   1.400       .  A
C1327      S1331   1.798       .  S
C1328      H1332   1.084   1_565  S
S1329      H1334   1.407       .  S
S1331      H1335   1.406       .  S
C1337      C1338   1.401       .  A
C1337      C1342   1.398       .  A
C1337      H1347   1.084       .  S
C1338      C1343   1.490   1_655  S
C1338      C1339   1.414       .  A
C1339      C1340   1.406       .  A
C1339      S1344   1.802       .  S
C1340      C1341   1.407       .  A
C1340      H1345   1.084       .  S
C1341      C1342   1.421       .  A
C1342      S1346   1.804       .  S
C1343      C1348   1.412       .  A
C1343      C1352   1.403       .  A
S1344      H1360   1.406   1_655  S
S1346      H1357   1.403       .  S
C1348      C1349   1.407       .  A
C1348      S1353   1.806       .  S
C1349      C1350   1.406       .  A
C1349      H1354   1.083       .  S
C1350      C1351   1.415       .  A
C1351      C1352   1.400       .  A
C1351      S1355   1.800       .  S
C1352      H1356   1.084       .  S
S1353      H1358   1.407       .  S
S1355      H1359   1.407       .  S
C1361      C1362   1.403       .  A
C1361      C1366   1.405       .  A
C1361      H1371   1.084       .  S
C1362      C1367   1.487       .  S
C1362      C1363   1.411       .  A
C1363      C1364   1.400       .  A
C1363      S1368   1.805       .  S
C1364      C1365   1.411       .  A
C1364      H1369   1.084       .  S
C1365      C1366   1.420       .  A
C1366      S1370   1.800       .  S
C1367      C1372   1.413       .  A
C1367      C1376   1.396       .  A
S1368      H1384   1.405       .  S
S1370      H1381   1.407       .  S
C1372      C1373   1.411       .  A
C1372      S1377   1.805       .  S
C1373      C1374   1.407       .  A
C1373      H1378   1.082       .  S
C1374      C1375   1.425       .  A
C1375      C1376   1.397       .  A
C1375      S1379   1.805       .  S
C1376      H1380   1.084       .  S
S1377      H1382   1.407       .  S
S1379      H1383   1.399       .  S
C1385      C1386   1.405       .  A
C1385      C1390   1.407       .  A
C1385      H1395   1.085       .  S
C1386      C1391   1.496       .  S
C1386      C1387   1.411       .  A
C1387      C1388   1.403       .  A
C1387      S1392   1.804       .  S
C1388      C1389   1.412       .  A
C1388      H1393   1.084       .  S
C1389      C1390   1.422       .  A
C1390      S1394   1.799       .  S
C1391      C1396   1.410       .  A
C1391      C1400   1.403       .  A
S1392      H1408   1.406       .  S
S1394      H1405   1.407       .  S
C1396      C1397   1.409       .  A
C1396      S1401   1.806       .  S
C1397      C1398   1.412       .  A
C1397      H1402   1.082       .  S
C1398      C1399   1.421       .  A
C1399      C1400   1.404       .  A
C1399      S1403   1.799       .  S
C1400      H1404   1.084       .  S
S1401      H1406   1.407       .  S
S1403      H1407   1.407       .  S
C1409      C1410   1.403       .  A
C1409      C1414   1.402       .  A
C1409      H1419   1.084       .  S
C1410      C1415   1.488       .  S
C1410      C1411   1.411       .  A
C1411      C1412   1.404       .  A
C1411      S1416   1.803       .  S
C1412      C1413   1.410       .  A
C1412      H1417   1.083       .  S
C1413      C1414   1.417       .  A
C1414      S1418   1.802       .  S
C1415      C1420   1.409       .  A
C1415      C1424   1.405       .  A
S1416      H1432   1.406       .  S
S1418      H1429   1.406       .  S
C1420      C1421   1.405       .  A
C1420      S1425   1.806       .  S
C1421      C1422   1.406       .  A
C1421      H1426   1.083       .  S
C1422      C1423   1.411       .  A
C1423      C1424   1.407       .  A
C1423      S1427   1.806       .  S
C1424      H1428   1.083       .  S
S1425      H1430   1.407       .  S
S1427      H1431   1.407       .  S
C1433      C1434   1.405       .  A
C1433      C1438   1.404       .  A
C1433      H1443   1.084       .  S
C1434      C1439   1.487       .  S
C1434      C1435   1.413       .  A
C1435      C1436   1.403       .  A
C1435      S1440   1.804       .  S
C1436      C1437   1.406       .  A
C1436      H1441   1.084       .  S
C1437      C1438   1.415       .  A
C1438      S1442   1.804       .  S
C1439      C1444   1.406       .  A
C1439      C1448   1.403       .  A
S1440      H1456   1.403       .  S
S1442      H1453   1.407       .  S
C1444      C1445   1.402       .  A
C1444      S1449   1.808       .  S
C1445      C1446   1.410   1_545  A
C1445      H1450   1.078       .  S
C1446      C1447   1.423       .  A
C1447      C1448   1.407   1_565  A
C1447      S1451   1.801       .  S
C1448      H1452   1.083       .  S
S1449      H1454   1.407       .  S
S1451      H1455   1.405       .  S
C1457      C1458   1.407       .  A
C1457      C1462   1.405       .  A
C1457      H1467   1.083       .  S
C1458      C1463   1.493       .  S
C1458      C1459   1.415       .  A
C1459      C1460   1.399       .  A
C1459      S1464   1.805       .  S
C1460      C1461   1.406       .  A
C1460      H1465   1.084       .  S
C1461      C1462   1.415       .  A
C1462      S1466   1.803       .  S
C1463      C1468   1.414       .  A
C1463      C1472   1.405       .  A
S1464      H1480   1.406       .  S
S1466      H1477   1.407       .  S
C1468      C1469   1.406       .  A
C1468      S1473   1.808       .  S
C1469      C1470   1.404       .  A
C1469      H1474   1.083       .  S
C1470      C1471   1.416       .  A
C1471      C1472   1.402       .  A
C1471      S1475   1.804       .  S
C1472      H1476   1.084       .  S
S1473      H1478   1.407       .  S
S1475      H1479   1.407       .  S
C1481      C1482   1.402       .  A
C1481      C1486   1.397       .  A
C1481      H1491   1.084       .  S
C1482      C1487   1.471       .  S
C1482      C1483   1.411       .  A
C1483      C1484   1.393       .  A
C1483      S1488   1.805       .  S
C1484      C1485   1.403       .  A
C1484      H1489   1.084       .  S
C1485      C1486   1.415       .  A
C1486      S1490   1.806       .  S
C1487      C1492   1.406       .  A
C1487      C1496   1.406       .  A
S1488      H1504   1.406       .  S
S1490      H1501   1.407       .  S
C1492      C1493   1.394       .  A
C1492      S1497   1.808       .  S
C1493      C1494   1.404       .  A
C1493      H1498   1.083       .  S
C1494      C1495   1.408       .  A
C1495      C1496   1.399       .  A
C1495      S1499   1.804       .  S
C1496      H1500   1.083       .  S
S1497      H1502   1.406       .  S
S1499      H1503   1.406       .  S
