geometry optimzed in LAMMPS
_audit_creation_date              2020-12-01 
_audit_creation_method            'lammps2cif' 
_symmetry_space_group_name_H-M    'P1' 
_symmetry_Int_Tables_number       1 
_symmetry_cell_setting            triclinic 
loop_ 
_symmetry_equiv_pos_as_xyz 
  x,y,z 
_cell_length_a                    40.63339369 
_cell_length_b                    33.81704637018162 
_cell_length_c                    44.300574571483665 
_cell_angle_alpha                 90.08628426526958 
_cell_angle_beta                  107.05410698180239 
_cell_angle_gamma                 89.67600329174186 
loop_ 
_atom_site_label 
_atom_site_type_symbol 
_atom_site_fract_x 
_atom_site_fract_y 
_atom_site_fract_z 
_atom_site_charge 
O1          O  0.29645391  0.54482242  0.38478898    -0.83000
C2          C  0.37265750  0.60559385  0.31222916     0.96300
O3          O  0.34652218  0.62375612  0.31559538    -0.72100
O4          O  0.29740911  0.57271138  0.30813520    -0.75700
Al5        Al  0.31643699  0.60958337  0.34006817     1.49000
C6          C  0.29384815  0.53582200  0.30779095     0.91600
O7          O  0.37111911  0.49831821  0.36298151    -0.81900
O8          O  0.38865082  0.58989623  0.42064434    -0.75500
Al9        Al  0.33486617  0.52717945  0.37336429     1.90100
O10         O  0.41193109  0.53853591  0.38546488    -0.74600
O11         O  0.38532275  0.64473132  0.37550760    -0.74400
O12         O  0.39358822  0.58744894  0.33527179    -0.80100
O13         O  0.33065523  0.65368102  0.36826470    -0.78300
O14         O  0.34681996  0.57514246  0.36384358    -1.14400
O15         O  0.28036623  0.60015735  0.35899859    -0.73600
C16         C  0.27502869  0.57244107  0.37598163     0.97100
C17         C  0.40256291  0.50458447  0.37550549     0.93500
Al18       Al  0.39091019  0.58904431  0.37792842     1.55600
O19         O  0.30721560  0.51504664  0.33191829    -0.78200
C20         C  0.36067508  0.66749558  0.37474697     0.97700
C21         C  0.37732170  0.56126109  0.43346413     0.92500
O22         O  0.36028478  0.53323712  0.41696318    -0.83600
O23         O  0.46180764  0.54292717  0.11693999    -0.83000
C24         C  0.37800062  0.60237406  0.18393880     0.96300
O25         O  0.40418942  0.62087876  0.18139843    -0.72100
O26         O  0.45607197  0.57287910  0.19077521    -0.75700
Al27       Al  0.43596139  0.60823233  0.15812820     1.49000
C28         C  0.46019459  0.53608418  0.19261450     0.91600
O29         O  0.38606372  0.49537550  0.13619562    -0.81900
O30         O  0.36818659  0.58590497  0.07755854    -0.75500
Al31       Al  0.42218923  0.52472731  0.12654618     1.90100
O32         O  0.34403518  0.53270194  0.11073494    -0.74600
O33         O  0.36602542  0.63985718  0.12165758    -0.74400
O34         O  0.35898325  0.58208336  0.16117358    -0.80100
O35         O  0.42007140  0.65104100  0.12896534    -0.78300
O36         O  0.40785963  0.57221656  0.13461024    -1.14400
O37         O  0.47344803  0.60022952  0.14066126    -0.73600
C38         C  0.48193544  0.57147203  0.12630634     0.97100
C39         C  0.35446442  0.50015728  0.12330727     0.93500
Al40       Al  0.36332983  0.58406839  0.11910526     1.55600
O41         O  0.44807917  0.51424998  0.16886365    -0.78200
C42         C  0.38965309  0.66394684  0.12288101     0.97700
C43         C  0.38260040  0.55894245  0.06560995     0.92500
O44         O  0.39842582  0.52987700  0.08207853    -0.83600
O45         O  0.14696242  0.46585192  0.08220843    -0.83000
C46         C  0.13220972  0.39944901  0.18763554     0.96300
O47         O  0.11202404  0.41771269  0.16424456    -0.72100
O48         O  0.09510703  0.46456223  0.11265646    -0.75700
Al49       Al  0.11509747  0.41347949  0.12199313     1.49000
C50         C  0.10532893  0.49788463  0.12352837     0.91600
O51         O  0.20080081  0.48573398  0.16698638    -0.81900
O52         O  0.22551598  0.39844491  0.14207009    -0.75500
Al53       Al  0.17268798  0.47284421  0.12575914     1.90100
O54         O  0.20882713  0.42878439  0.19181183    -0.74600
O55         O  0.17335755  0.34665273  0.13340517    -0.74400
O56         O  0.15825252  0.38031782  0.18511839    -0.80100
O57         O  0.11913434  0.35780316  0.12634924    -0.78300
O58         O  0.15957642  0.42599526  0.13609969    -1.14400
O59         O  0.11803662  0.40974500  0.07977733    -0.73600
C60         C  0.13057907  0.43679307  0.06646270     0.97100
C61         C  0.21355559  0.46543170  0.19151509     0.93500
Al62       Al  0.18888421  0.39144666  0.16067016     1.55600
O63         O  0.13695523  0.50309212  0.13617375    -0.78200
C64         C  0.14313412  0.33367519  0.12814242     0.97700
C65         C  0.23213490  0.42536796  0.12504850     0.92500
O66         O  0.21107815  0.45305887  0.11459416    -0.83600
O67         O  0.10736191  0.46863250  0.41759546    -0.83000
C68         C  0.12592237  0.39845955  0.31493212     0.96300
O69         O  0.14586892  0.41711951  0.33821362    -0.72100
O70         O  0.16231673  0.46476479  0.38971259    -0.75700
Al71       Al  0.14169612  0.41438189  0.38012805     1.49000
C72         C  0.15299262  0.49813958  0.37833080     0.91600
O73         O  0.05998617  0.48749368  0.33081641    -0.81900
O74         O  0.03237194  0.39964175  0.36141848    -0.75500
Al75       Al  0.08455258  0.47557844  0.37317907     1.90100
O76         O  0.04681092  0.42883994  0.30991500    -0.74600
O77         O  0.08408705  0.34829046  0.36898957    -0.74400
O78         O  0.09872344  0.38137855  0.31679369    -0.80100
O79         O  0.13833976  0.35889600  0.37650693    -0.78300
O80         O  0.09745216  0.42758000  0.36491045    -1.14400
O81         O  0.13692409  0.41201734  0.42164081    -0.73600
C82         C  0.12377077  0.43979512  0.43397908     0.97100
C83         C  0.04545455  0.46581345  0.30761972     0.93500
Al84       Al  0.06810565  0.39248866  0.34149190     1.55600
O85         O  0.12172995  0.50397563  0.36480768    -0.78200
C86         C  0.11438852  0.33534106  0.37501652     0.97700
C87         C  0.02497433  0.42926452  0.37558298     0.92500
O88         O  0.04443443  0.45876761  0.38170270    -0.83600
O89         O  0.35324743  0.96370584  0.16874708    -0.83000
C90         C  0.37710564  0.89358877  0.06647612     0.96300
O91         O  0.39507000  0.91260730  0.09036631    -0.72100
O92         O  0.40801052  0.96056178  0.14053637    -0.75700
Al93       Al  0.38767143  0.90973711  0.13126924     1.49000
C94         C  0.39825003  0.99393672  0.12903639     0.91600
O95         O  0.30419499  0.98397161  0.08310616    -0.81900
O96         O  0.27469691  0.90350214  0.09770318    -0.75500
Al97       Al  0.32987706  0.97044316  0.12469090     1.90100
O98         O  0.30435817  0.93084344  0.05488945    -0.74600
O99         O  0.32526574  0.84635214  0.11396177    -0.74400
O100        O  0.35032828  0.87529200  0.06717911    -0.80100
O101        O  0.38081331  0.85460284  0.12736412    -0.78300
O102        O  0.34397232  0.92395139  0.11426958    -1.14400
O103        O  0.38153322  0.90704167  0.17227615    -0.73600
C104        C  0.36884755  0.93458364  0.18499404     0.97100
C105        C  0.29748011  0.96691888  0.05675721     0.93500
Al106      Al  0.31596072  0.89169995  0.08619419     1.55600
O107        O  0.36666727  0.00028767  0.11657323    -0.78200
C108        C  0.35544912  0.83183320  0.12264374     0.97700
C109        C  0.26740054  0.92782134  0.11648309     0.92500
O110        O  0.29030345  0.94985693  0.13355350    -0.83600
O111        O  0.39701770  0.96713437  0.33413632    -0.83000
C112        C  0.38515789  0.89440954  0.43906246     0.96300
O113        O  0.36446689  0.91387081  0.41671836    -0.72100
O114        O  0.34579726  0.96326707  0.36676070    -0.75700
Al115      Al  0.36610730  0.91227216  0.37392014     1.49000
C116        C  0.35593579  0.99677591  0.37725584     0.91600
O117        O  0.45086882  0.98352845  0.41990835    -0.81900
O118        O  0.47718337  0.89951785  0.39166499    -0.75500
Al119      Al  0.42303882  0.97276890  0.37807837     1.90100
O120        O  0.45942606  0.92518133  0.44238959    -0.74600
O121        O  0.42485147  0.84660621  0.38081330    -0.74400
O122        O  0.41029197  0.87520405  0.43455921    -0.80100
O123        O  0.37069043  0.85652236  0.37606048    -0.78300
O124        O  0.41047011  0.92501940  0.38720280    -1.14400
O125        O  0.36769103  0.91105763  0.33145947    -0.73600
C126        C  0.37949303  0.93880278  0.31824361     0.97100
C127        C  0.46339101  0.96190627  0.44383182     0.93500
Al128      Al  0.44036340  0.88961010  0.41004403     1.55600
O129        O  0.38754662  0.00224727  0.38922090    -0.78200
C130        C  0.39467747  0.83332789  0.37558156     0.97700
C131        C  0.48316024  0.92801757  0.37563717     0.92500
O132        O  0.46138532  0.95518496  0.36630920    -0.83600
O133        O  0.04327867  0.04898544  0.14137020    -0.83000
C134        C  0.11792532  0.10311721  0.06272369     0.96300
O135        O  0.09218142  0.12195610  0.06636174    -0.72100
O136        O  0.04319995  0.07197233  0.06035121    -0.75700
Al137      Al  0.06217310  0.10896870  0.09156480     1.49000
C138        C  0.03609276  0.03609735  0.06141705     0.91600
O139        O  0.11239907  0.99772061  0.11293732    -0.81900
O140        O  0.13524519  0.09041049  0.17048984    -0.75500
Al141      Al  0.07905559  0.02803938  0.12681854     1.90100
O142        O  0.15606813  0.03463155  0.13547451    -0.74600
O143        O  0.13185682  0.14229482  0.12485952    -0.74400
O144        O  0.13816711  0.08368111  0.08530946    -0.80100
O145        O  0.07778281  0.15320544  0.11969840    -0.78300
O146        O  0.09196044  0.07449183  0.11548278    -1.14400
O147        O  0.02525009  0.09984993  0.11020199    -0.73600
C148        C  0.02027369  0.07406691  0.12909598     0.97100
C149        C  0.14442946  0.00234524  0.12301875     0.93500
Al150      Al  0.13650650  0.08670281  0.12804959     1.55600
O151        O  0.04758000  0.01629918  0.08651393    -0.78200
C152        C  0.10808149  0.16616262  0.12478880     0.97700
C153        C  0.12371148  0.06357960  0.18457530     0.92500
O154        O  0.10794224  0.03353803  0.16995390    -0.83600
O155        O  0.21045048  0.04915557  0.36363517    -0.83000
C156        C  0.13204671  0.11054149  0.43691009     0.96300
O157        O  0.15929134  0.12682747  0.43465239    -0.72100
O158        O  0.20721743  0.07391662  0.44278071    -0.75700
Al159      Al  0.19032848  0.11122431  0.41125930     1.49000
C160        C  0.21353150  0.03764029  0.44185057     0.91600
O161        O  0.13682735  0.00175978  0.38749704    -0.81900
O162        O  0.11901422  0.09331718  0.32938258    -0.75500
Al163      Al  0.17249795  0.03027761  0.37602875     1.90100
O164        O  0.09526355  0.04184781  0.36471540    -0.74600
O165        O  0.12273721  0.14815402  0.37378083    -0.74400
O166        O  0.11223945  0.09188716  0.41371055    -0.80100
O167        O  0.17798715  0.15520677  0.38306655    -0.78300
O168        O  0.16019384  0.07790426  0.38629147    -1.14400
O169        O  0.22786032  0.10032865  0.39445224    -0.73600
C170        C  0.23317939  0.07441646  0.37589523     0.97100
C171        C  0.10510317  0.00831930  0.37589666     0.93500
Al172      Al  0.11616568  0.09260710  0.37165041     1.55600
O173        O  0.20159672  0.01788021  0.41694849    -0.78200
C174        C  0.14812927  0.16988677  0.37546005     0.97700
C175        C  0.13001199  0.06463637  0.31635399     0.92500
O176        O  0.14581844  0.03556967  0.33256655    -0.83600
C177        C  0.12758529  0.06733598  0.21848958    -0.07300
C178        C  0.10191155  0.08738791  0.22788705    -0.18500
C179        C  0.10095226  0.08619752  0.25930250     0.09900
C180        C  0.12673934  0.06504157  0.28206130    -0.07300
C181        C  0.15220224  0.04495614  0.27221452    -0.18500
C182        C  0.15362059  0.04715296  0.24117086     0.09900
S183        S  0.06486975  0.10944373  0.26813330    -0.33500
S184        S  0.19003524  0.02504761  0.23227068    -0.33500
H185        H  0.18979678  0.04995910  0.20684729     0.27900
H186        H  0.06075370  0.07923689  0.28853475     0.27900
H187        H  0.08196282  0.10317109  0.21036705     0.18500
H188        H  0.17182340  0.02804432  0.28908868     0.18500
C189        C  0.12530725  0.11109365  0.46803929    -0.07300
C190        C  0.11457631  0.07585222  0.47877968    -0.18500
C191        C  0.11378520  0.07149952  0.01001550     0.09900
C192        C  0.12314768  0.10376866  0.03116727    -0.07300
C193        C  0.13284031  0.13949232  0.02022905    -0.18500
C194        C  0.13414194  0.14353945  0.48907389     0.09900
S195        S  0.09946890  0.02418591  0.02021622    -0.33500
S196        S  0.14634981  0.19108523  0.47746513    -0.33500
H197        H  0.12590249  0.18863002  0.44581524     0.27900
H198        H  0.10483983  0.02992444  0.05255129     0.27900
H199        H  0.10795687  0.05077011  0.46299996     0.18500
H200        H  0.13887485  0.16474001  0.03596471     0.18500
C201        C  0.48226245  0.97986767  0.47429588    -0.07300
C202        C  0.47665943  0.02005843  0.47873465    -0.18500
C203        C  0.99236144  0.03870888  0.00736283     0.09900
C204        C  0.01501521  0.01698218  0.03234656    -0.07300
C205        C  0.01989032  0.97653279  0.02834404    -0.18500
C206        C  0.50428245  0.95783858  0.49958392     0.09900
S207        S  0.98091934  0.08987721  0.01028724    -0.33500
S208        S  0.51535231  0.90650378  0.49686733    -0.33500
H209        H  0.52249996  0.91128360  0.46787513     0.27900
H210        H  0.97956807  0.08662896  0.04146083     0.27900
H211        H  0.45922004  0.03709645  0.45998885     0.18500
H212        H  0.03736722  0.95965504  0.04718022     0.18500
C213        C  0.26793980  0.06950452  0.37148953    -0.07300
C214        C  0.29743069  0.07417848  0.39763346    -0.18500
C215        C  0.32878169  0.05501511  0.39865890     0.09900
C216        C  0.32958202  0.02845463  0.37421264    -0.07300
C217        C  0.30160507  0.02836247  0.34666807    -0.18500
C218        C  0.27184001  0.05021524  0.34459149     0.09900
S219        S  0.36657101  0.06318801  0.43159294    -0.33500
S220        S  0.23954575  0.05204820  0.30705816    -0.33500
H221        H  0.22297990  0.08630082  0.31354984     0.27900
H222        H  0.35180143  0.09167324  0.44690893     0.27900
H223        H  0.29526954  0.09025859  0.41809644     0.18500
H224        H  0.30242528  0.01012911  0.32684396     0.18500
C225        C  0.07832099  0.97764810  0.37411847    -0.07300
C226        C  0.05080203  0.97583021  0.34611294    -0.18500
C227        C  0.02098190  0.95413932  0.34426405     0.09900
C228        C  0.01772358  0.93411066  0.37119737    -0.07300
C229        C  0.04675808  0.93199519  0.39802738    -0.18500
C230        C  0.07682384  0.95377130  0.39992192     0.09900
S231        S  0.98684072  0.95532545  0.30744572    -0.33500
S232        S  0.11051066  0.95289834  0.43698143    -0.33500
H233        H  0.11896745  0.99306419  0.43698992     0.27900
H234        H  0.47041867  0.92082484  0.31308918     0.27900
H235        H  0.05189732  0.99296316  0.32576840     0.18500
H236        H  0.04469890  0.91696129  0.41897038     0.18500
C237        C  0.23614431  0.01917796  0.47056969    -0.07300
C238        C  0.23930180  0.03821662  0.49944402    -0.18500
C239        C  0.26067546  0.02369477  0.02772020     0.09900
C240        C  0.27936515  0.98828018  0.02757124    -0.07300
C241        C  0.27756406  0.97022080  0.99851248    -0.18500
C242        C  0.25644985  0.98527306  0.47002628     0.09900
S243        S  0.26234138  0.05187243  0.06269991    -0.33500
S244        S  0.25852037  0.96133838  0.43422573    -0.33500
H245        H  0.26265492  0.99689934  0.41928968     0.27900
H246        H  0.29832991  0.05637289  0.07099185     0.27900
H247        H  0.22463192  0.06490632  0.50019917     0.18500
H248        H  0.29248813  0.94373222  0.99780616     0.18500
C249        C  0.38458244  0.89462674  0.03607265    -0.07300
C250        C  0.37401027  0.92842305  0.01745841    -0.18500
C251        C  0.37315983  0.92885455  0.48568651     0.09900
C252        C  0.38181769  0.89443773  0.47147759    -0.07300
C253        C  0.39174573  0.86022699  0.49005088    -0.18500
C254        C  0.39349268  0.86019555  0.02224589     0.09900
S255        S  0.36077407  0.97453300  0.46479098    -0.33500
S256        S  0.40549229  0.81464532  0.04388839    -0.33500
H257        H  0.41845072  0.83248334  0.07367016     0.27900
H258        H  0.38842683  0.97419256  0.45169957     0.27900
H259        H  0.36546978  0.95424701  0.02751949     0.18500
H260        H  0.39868730  0.83367195  0.47965819     0.18500
C261        C  0.37198349  0.93413783  0.21929211    -0.07300
C262        C  0.36879783  0.97043555  0.23378474    -0.18500
C263        C  0.36922593  0.97259286  0.26536427     0.09900
C264        C  0.37390728  0.93777243  0.28372975    -0.07300
C265        C  0.37622994  0.90130345  0.26925482    -0.18500
C266        C  0.37536231  0.89907125  0.23741950     0.09900
S267        S  0.36208464  0.02057925  0.28021522    -0.33500
S268        S  0.37707775  0.85056777  0.22114982    -0.33500
H269        H  0.40870814  0.85777502  0.21524996     0.27900
H270        H  0.34418160  0.00613509  0.30053868     0.27900
H271        H  0.36543303  0.99762962  0.22027454     0.18500
H272        H  0.37967936  0.87434455  0.28306623     0.18500
C273        C  0.42488285  0.02453119  0.13065054    -0.07300
C274        C  0.45174710  0.02787113  0.15892665    -0.18500
C275        C  0.48148017  0.04954755  0.16050511     0.09900
C276        C  0.48538882  0.06792229  0.13313252    -0.07300
C277        C  0.45677070  0.06858942  0.10591270    -0.18500
C278        C  0.42692394  0.04659351  0.10416469     0.09900
S279        S  0.01432576  0.05162224  0.19782873    -0.33500
S280        S  0.39450200  0.04386892  0.06643158    -0.33500
H281        H  0.38974165  0.00285089  0.06767942     0.27900
H282        H  0.02432242  0.08995937  0.19217520     0.27900
H283        H  0.45016786  0.01208126  0.17974434     0.18500
H284        H  0.45903938  0.08259135  0.08465683     0.18500
C285        C  0.23104837  0.93472567  0.11616132    -0.07300
C286        C  0.22308324  0.93639791  0.14485685    -0.18500
C287        C  0.19194123  0.95299910  0.14662197     0.09900
C288        C  0.16925576  0.97129313  0.11984500    -0.07300
C289        C  0.17572665  0.96676033  0.09065305    -0.18500
C290        C  0.20592007  0.94783670  0.08837658     0.09900
S291        S  0.18240180  0.94965662  0.18362146    -0.33500
S292        S  0.21342622  0.94418468  0.05027546    -0.33500
H293        H  0.18200750  0.96098317  0.03240590     0.27900
H294        H  0.14678819  0.95645452  0.17141021     0.27900
H295        H  0.24163337  0.92559081  0.16619412     0.18500
H296        H  0.15825098  0.98041194  0.06998799     0.18500
C297        C  0.14223917  0.21302853  0.37210092    -0.07300
C298        C  0.16219062  0.23771053  0.39587798    -0.18500
C299        C  0.15252083  0.27709853  0.39859020     0.09900
C300        C  0.12230467  0.29256301  0.37693828    -0.07300
C301        C  0.10286448  0.26812755  0.35271278    -0.18500
C302        C  0.11277573  0.22892033  0.34980016     0.09900
S303        S  0.17900070  0.30559449  0.43104690    -0.33500
S304        S  0.08752383  0.20100955  0.31640613    -0.33500
H305        H  0.11482207  0.17660225  0.31403053     0.27900
H306        H  0.15189473  0.32888417  0.43526056     0.27900
H307        H  0.18433979  0.22565011  0.41355192     0.18500
H308        H  0.08070235  0.28018697  0.33504828     0.18500
C309        C  0.13487202  0.29054641  0.12670764    -0.07300
C310        C  0.10458851  0.27876540  0.13378408    -0.18500
C311        C  0.09566829  0.23882310  0.13481126     0.09900
C312        C  0.11682888  0.20918339  0.12774411    -0.07300
C313        C  0.14738465  0.22098380  0.12123135    -0.18500
C314        C  0.15647474  0.26080458  0.12050217     0.09900
S315        S  0.05796322  0.22783794  0.14673254    -0.33500
S316        S  0.19530935  0.27133665  0.11033012    -0.33500
H317        H  0.18045718  0.30211666  0.08937866     0.27900
H318        H  0.07314803  0.19555958  0.16590999     0.27900
H319        H  0.08800933  0.30087726  0.13958030     0.18500
H320        H  0.16413592  0.19898023  0.11556598     0.18500
C321        C  0.12692155  0.43584415  0.03206260    -0.07300
C322        C  0.13011861  0.47194024  0.01746182    -0.18500
C323        C  0.13065430  0.47376463  0.48615831     0.09900
C324        C  0.12676944  0.43880009  0.46803290    -0.07300
C325        C  0.12300432  0.40262855  0.48220247    -0.18500
C326        C  0.12345454  0.40064890  0.01400740     0.09900
S327        S  0.13833075  0.52153504  0.47149269    -0.33500
S328        S  0.12087893  0.35232373  0.03015274    -0.33500
H329        H  0.14923796  0.35846955  0.05693878     0.27900
H330        H  0.15927810  0.50694970  0.45367764     0.27900
H331        H  0.13311947  0.49928658  0.03078522     0.18500
H332        H  0.11971618  0.37563486  0.46841237     0.18500
C333        C  0.13230303  0.39763810  0.28397889    -0.07300
C334        C  0.13475937  0.43381308  0.26937310    -0.18500
C335        C  0.13183965  0.43555297  0.23710817     0.09900
C336        C  0.12717538  0.40038913  0.21913870    -0.07300
C337        C  0.12589754  0.36415450  0.23405349    -0.18500
C338        C  0.12824894  0.36240509  0.26612292     0.09900
S339        S  0.13557053  0.48313619  0.22034432    -0.33500
S340        S  0.12642706  0.31425260  0.28307877    -0.33500
H341        H  0.14592513  0.32428780  0.31395209     0.27900
H342        H  0.10608518  0.47793579  0.19451954     0.27900
H343        H  0.13716099  0.46105186  0.28276546     0.18500
H344        H  0.12383840  0.33690334  0.22072434     0.18500
C345        C  0.38084974  0.70706258  0.12027954    -0.07300
C346        C  0.34764115  0.71877323  0.12120940    -0.18500
C347        C  0.33865654  0.75863462  0.12333799     0.09900
C348        C  0.36298463  0.78839121  0.12385440    -0.07300
C349        C  0.39603935  0.77657507  0.12268529    -0.18500
C350        C  0.40497615  0.73691994  0.12041562     0.09900
S351        S  0.29645260  0.76912740  0.12686921    -0.33500
S352        S  0.44732980  0.72701390  0.11693849    -0.33500
H353        H  0.43563213  0.69962654  0.09222488     0.27900
H354        H  0.30808085  0.79796999  0.15048282     0.27900
H355        H  0.32858854  0.69659169  0.12148330     0.18500
H356        H  0.41527644  0.79858239  0.12259510     0.18500
C357        C  0.02499837  0.48386482  0.27771655    -0.07300
C358        C  0.00909961  0.52041747  0.27911719    -0.18500
C359        C  0.98712839  0.53793343  0.25207290     0.09900
C360        C  0.48115444  0.51848510  0.22261002    -0.07300
C361        C  0.49728365  0.48201231  0.22123649    -0.18500
C362        C  0.01928062  0.46455964  0.24828575     0.09900
S363        S  0.96659956  0.58443688  0.25627479    -0.33500
S364        S  0.54082921  0.41870372  0.24425696    -0.33500
H365        H  0.02745426  0.41469552  0.21133206     0.27900
H366        H  0.47611406  0.58527354  0.28945992     0.27900
H367        H  0.01337738  0.53495484  0.30171469     0.18500
H368        H  0.49327044  0.46751323  0.19865533     0.18500
C369        C  0.32863764  0.46878426  0.12231743    -0.07300
C370        C  0.30224221  0.46356055  0.09384486    -0.18500
C371        C  0.27175069  0.44371951  0.09294168     0.09900
C372        C  0.26703742  0.42897738  0.12115130    -0.07300
C373        C  0.29502816  0.42993940  0.14884868    -0.18500
C374        C  0.32561850  0.44982051  0.14979077     0.09900
S375        S  0.23861538  0.44073009  0.05558461    -0.33500
S376        S  0.35713257  0.45576566  0.18770739    -0.33500
H377        H  0.38509534  0.44513773  0.17672940     0.27900
H378        H  0.22083118  0.40904368  0.06407067     0.27900
H379        H  0.30447104  0.47727887  0.07242675     0.18500
H380        H  0.29164759  0.41923271  0.17080537     0.18500
C381        C  0.07911359  0.52938429  0.12153637    -0.07300
C382        C  0.07692544  0.54772774  0.14927652    -0.18500
C383        C  0.04647101  0.56678365  0.15046375     0.09900
C384        C  0.01731601  0.56755855  0.12329739    -0.07300
C385        C  0.02105339  0.55306351  0.09477804    -0.18500
C386        C  0.05167884  0.53474651  0.09352181     0.09900
S387        S  0.04463985  0.58364065  0.18851405    -0.33500
S388        S  0.05362767  0.51659656  0.05577396    -0.33500
H389        H  0.08965531  0.51904298  0.06299137     0.27900
H390        H  0.03007095  0.62048226  0.17707491     0.27900
H391        H  0.09795201  0.54434704  0.17086272     0.18500
H392        H  0.49913597  0.55367012  0.07369327     0.18500
C393        C  0.36759025  0.71062504  0.37800570    -0.07300
C394        C  0.34577935  0.73642398  0.35624880    -0.18500
C395        C  0.35512241  0.77582964  0.35335794     0.09900
C396        C  0.38698934  0.79038051  0.37280353    -0.07300
C397        C  0.40853738  0.76471188  0.39485916    -0.18500
C398        C  0.39898675  0.72547924  0.39800636     0.09900
S399        S  0.32569909  0.80565452  0.32354868    -0.33500
S400        S  0.42726186  0.69634330  0.42911040    -0.33500
H401        H  0.40092935  0.67330095  0.43470037     0.27900
H402        H  0.35132620  0.82891842  0.31693695     0.27900
H403        H  0.32209470  0.72533323  0.34027474     0.18500
H404        H  0.43213513  0.77585380  0.41094331     0.18500
C405        C  0.23445665  0.48420149  0.22074539    -0.07300
C406        C  0.23038730  0.47083760  0.24941727    -0.18500
C407        C  0.24907735  0.48738825  0.27812644     0.09900
C408        C  0.27337692  0.51714829  0.27842295    -0.07300
C409        C  0.27766353  0.53040201  0.24981602    -0.18500
C410        C  0.25880007  0.51400681  0.22103654     0.09900
S411        S  0.23910774  0.47091321  0.31314532    -0.33500
S412        S  0.26845647  0.53107054  0.18602692    -0.33500
H413        H  0.26464893  0.49400858  0.17115474     0.27900
H414        H  0.24134717  0.50863811  0.32696052     0.27900
H415        H  0.21173433  0.44807116  0.24939446     0.18500
H416        H  0.29644200  0.55307918  0.24996408     0.18500
C417        C  0.37191573  0.60345241  0.21506160    -0.07300
C418        C  0.37658680  0.56827327  0.23248160    -0.18500
C419        C  0.37887855  0.56838764  0.26464478     0.09900
C420        C  0.37640737  0.60446611  0.28002817    -0.07300
C421        C  0.37141353  0.63966104  0.26241463    -0.18500
C422        C  0.36948517  0.63957663  0.23031456     0.09900
S423        S  0.38461913  0.52143396  0.28447763    -0.33500
S424        S  0.36390354  0.68645307  0.20999215    -0.33500
H425        H  0.34690688  0.67112742  0.17998018     0.27900
H426        H  0.36109610  0.52901634  0.30151490     0.27900
H427        H  0.37976362  0.54060468  0.22120081     0.18500
H428        H  0.36865407  0.66744410  0.27371653     0.18500
C429        C  0.38250729  0.56028710  0.46810430    -0.07300
C430        C  0.38491855  0.59600236  0.48486206    -0.18500
C431        C  0.38561823  0.59647915  0.01672025     0.09900
C432        C  0.38181617  0.56077250  0.03197002    -0.07300
C433        C  0.38027858  0.52508439  0.01547964    -0.18500
C434        C  0.38177255  0.52432346  0.48433705     0.09900
S435        S  0.39331753  0.64329117  0.03700766    -0.33500
S436        S  0.38403891  0.47617639  0.46739449    -0.33500
H437        H  0.40716627  0.48782074  0.45088316     0.27900
H438        H  0.41609301  0.62772602  0.06485692     0.27900
H439        H  0.38623559  0.62373914  0.47309897     0.18500
H440        H  0.37879105  0.49734192  0.02721739     0.18500
C441        C  0.42966375  0.47348835  0.37963798    -0.07300
C442        C  0.45876867  0.47690471  0.40614733    -0.18500
C443        C  0.48916299  0.45625502  0.40812489     0.09900
C444        C  0.49148373  0.43299171  0.38236970    -0.07300
C445        C  0.46108771  0.42474738  0.35810730    -0.18500
C446        C  0.42983904  0.44417315  0.35688613     0.09900
S447        S  0.02525854  0.46356979  0.44289452    -0.33500
S448        S  0.39156521  0.43345214  0.32511014    -0.33500
H449        H  0.40532416  0.40125815  0.31258263     0.27900
H450        H  0.04306183  0.42900212  0.43902620     0.27900
H451        H  0.45844035  0.49743212  0.42485451     0.18500
H452        H  0.46253508  0.40625463  0.33858321     0.18500
C453        C  0.24144677  0.56820251  0.38247015    -0.07300
C454        C  0.21126095  0.57428862  0.35737268    -0.18500
C455        C  0.18035332  0.55527494  0.35669926     0.09900
C456        C  0.17975892  0.52898734  0.38134202    -0.07300
C457        C  0.20867045  0.52735131  0.40819473    -0.18500
C458        C  0.23912473  0.54706871  0.40923898     0.09900
S459        S  0.14421467  0.56159082  0.32201743    -0.33500
S460        S  0.27511419  0.54134766  0.44438628    -0.33500
H461        H  0.29256125  0.57547988  0.43951651     0.27900
H462        H  0.12100125  0.56989311  0.33935510     0.27900
H463        H  0.21252776  0.59063153  0.33673327     0.18500
H464        H  0.20826623  0.50859616  0.42789289     0.18500
O465        O  0.29646472  0.54485005  0.88477498    -0.83000
C466        C  0.37276344  0.60559623  0.81227663     0.96300
O467        O  0.34665660  0.62380523  0.81565809    -0.72100
O468        O  0.29750952  0.57278328  0.80810051    -0.75700
Al469      Al  0.31652393  0.60960336  0.84008025     1.49000
C470        C  0.29387848  0.53590325  0.80774370     0.91600
O471        O  0.37109999  0.49826448  0.86293133    -0.81900
O472        O  0.38867968  0.58978766  0.92066340    -0.75500
Al473      Al  0.33485964  0.52716179  0.87333051     1.90100
O474        O  0.41193774  0.53843116  0.88546515    -0.74600
O475        O  0.38541547  0.64466718  0.87558158    -0.74400
O476        O  0.39366596  0.58740594  0.83530976    -0.80100
O477        O  0.33074948  0.65364273  0.86833870    -0.78300
O478        O  0.34686465  0.57511613  0.86384546    -1.14400
O479        O  0.28040415  0.60016811  0.85895198    -0.73600
C480        C  0.27504798  0.57247417  0.87594531     0.97100
C481        C  0.40254977  0.50449545  0.87547531     0.93500
Al482      Al  0.39096456  0.58896866  0.87795958     1.55600
O483        O  0.30718756  0.51510077  0.83187060    -0.78200
C484        C  0.36077796  0.66744017  0.87484337     0.97700
C485        C  0.37731621  0.56115765  0.93345895     0.92500
O486        O  0.36027842  0.53315182  0.91693530    -0.83600
O487        O  0.46187855  0.54285566  0.61699365    -0.83000
C488        C  0.37807029  0.60232566  0.68396766     0.96300
O489        O  0.40425002  0.62083648  0.68141319    -0.72100
O490        O  0.45613081  0.57284962  0.69078445    -0.75700
Al491      Al  0.43601444  0.60818250  0.65813651     1.49000
C492        C  0.46023583  0.53605500  0.69264367     0.91600
O493        O  0.38611013  0.49530126  0.63619709    -0.81900
O494        O  0.36822998  0.58583287  0.57758447    -0.75500
Al495      Al  0.42224544  0.52466568  0.62657478     1.90100
O496        O  0.34408164  0.53264639  0.61076840    -0.74600
O497        O  0.36608058  0.63979400  0.62167816    -0.74400
O498        O  0.35904866  0.58202771  0.66120907    -0.80100
O499        O  0.42012148  0.65096409  0.62896244    -0.78300
O500        O  0.40791257  0.57215502  0.63463207    -1.14400
O501        O  0.47349120  0.60018805  0.64066464    -0.73600
C502        C  0.48198730  0.57142362  0.62632614     0.97100
C503        C  0.35451031  0.50009300  0.62332062     0.93500
Al504      Al  0.36338261  0.58400516  0.61913367     1.55600
O505        O  0.44810925  0.51419811  0.66890640    -0.78200
C506        C  0.38970977  0.66387794  0.62289074     0.97700
C507        C  0.38266894  0.55889779  0.56563253     0.92500
O508        O  0.39850617  0.52983284  0.58209761    -0.83600
O509        O  0.14697884  0.46586814  0.58215804    -0.83000
C510        C  0.13223015  0.39960180  0.68763318     0.96300
O511        O  0.11204297  0.41785046  0.66423519    -0.72100
O512        O  0.09513734  0.46463995  0.61262178    -0.75700
Al513      Al  0.11510494  0.41356043  0.62198103     1.49000
C514        C  0.10537011  0.49796584  0.62347313     0.91600
O515        O  0.20083600  0.48581348  0.66691730    -0.81900
O516        O  0.22551223  0.39846454  0.64204610    -0.75500
Al517      Al  0.17271565  0.47288954  0.62570085     1.90100
O518        O  0.20884481  0.42888677  0.69177608    -0.74600
O519        O  0.17333329  0.34668897  0.63342183    -0.74400
O520        O  0.15826062  0.38044620  0.68511729    -0.80100
O521        O  0.11911481  0.35787795  0.62636447    -0.78300
O522        O  0.15958881  0.42605927  0.63606983    -1.14400
O523        O  0.11802629  0.40978355  0.57976014    -0.73600
C524        C  0.13056350  0.43681818  0.56642703     0.97100
C525        C  0.21357879  0.46553281  0.69145936     0.93500
Al526      Al  0.18888514  0.39151775  0.66065733     1.55600
O527        O  0.13699822  0.50317247  0.63610455    -0.78200
C528        C  0.14310104  0.33373035  0.62815652     0.97700
C529        C  0.23214484  0.42536737  0.62501504     0.92500
O530        O  0.21109860  0.45306352  0.61454382    -0.83600
O531        O  0.10745021  0.46863089  0.91766522    -0.83000
C532        C  0.12603009  0.39857826  0.81495060     0.96300
O533        O  0.14596460  0.41721848  0.83824802    -0.72100
O534        O  0.16237229  0.46483382  0.88975640    -0.75700
Al535      Al  0.14177083  0.41442511  0.88015735     1.49000
C536        C  0.15302762  0.49820725  0.87837247     0.91600
O537        O  0.05999734  0.48757153  0.83091005    -0.81900
O538        O  0.03240607  0.39969397  0.86133572    -0.75500
Al539      Al  0.08460423  0.47560075  0.87325815     1.90100
O540        O  0.04695971  0.42894800  0.80991618    -0.74600
O541        O  0.08412711  0.34831905  0.86892133    -0.74400
O542        O  0.09883707  0.38147608  0.81679739    -0.80100
O543        O  0.13839779  0.35891222  0.87650622    -0.78300
O544        O  0.09752243  0.42762362  0.86494091    -1.14400
O545        O  0.13699904  0.41201435  0.92167027    -0.73600
C546        C  0.12386115  0.43978303  0.93403003     0.97100
C547        C  0.04554693  0.46592058  0.80766908     0.93500
Al548      Al  0.06818981  0.39256164  0.84146385     1.55600
O549        O  0.12175702  0.50403274  0.86487291    -0.78200
C550        C  0.11442596  0.33535510  0.87495915     0.97700
C551        C  0.02501551  0.42924996  0.87557708     0.92500
O552        O  0.04450451  0.45872585  0.88180364    -0.83600
O553        O  0.35330510  0.96364933  0.66870949    -0.83000
C554        C  0.37705814  0.89335020  0.56640702     0.96300
O555        O  0.39501455  0.91246902  0.59024111    -0.72100
O556        O  0.40797992  0.96051129  0.64033884    -0.75700
Al557      Al  0.38769432  0.90966664  0.63118282     1.49000
C558        C  0.39817845  0.99390097  0.62889153     0.91600
O559        O  0.30408780  0.98376058  0.58304494    -0.81900
O560        O  0.27469106  0.90343391  0.59764728    -0.75500
Al561      Al  0.32985645  0.97031103  0.62464861     1.90100
O562        O  0.30443837  0.93066952  0.55484160    -0.74600
O563        O  0.32528535  0.84626382  0.61401042    -0.74400
O564        O  0.35032579  0.87502896  0.56719174    -0.80100
O565        O  0.38083734  0.85452603  0.62736004    -0.78300
O566        O  0.34398636  0.92383585  0.61422884    -1.14400
O567        O  0.38165255  0.90703445  0.67223098    -0.73600
C568        C  0.36896382  0.93455934  0.68496168     0.97100
C569        C  0.29750163  0.96673433  0.55668596     0.93500
Al570      Al  0.31597625  0.89155409  0.58618074     1.55600
O571        O  0.36658318  0.00023106  0.61647028    -0.78200
C572        C  0.35547725  0.83175191  0.62268606     0.97700
C573        C  0.26742077  0.92770469  0.61647484     0.92500
O574        O  0.29036038  0.94964664  0.63360093    -0.83600
O575        O  0.39726307  0.96703434  0.83416535    -0.83000
C576        C  0.38528072  0.89445528  0.93912860     0.96300
O577        O  0.36459680  0.91388296  0.91675311    -0.72100
O578        O  0.34596846  0.96325075  0.86675543    -0.75700
Al579      Al  0.36627088  0.91224312  0.87395046     1.49000
C580        C  0.35611506  0.99675701  0.87725138     0.91600
O581        O  0.45102644  0.98348057  0.91996299    -0.81900
O582        O  0.47737537  0.89942648  0.89183759    -0.75500
Al583      Al  0.42323992  0.97269350  0.87812111     1.90100
O584        O  0.45951736  0.92515741  0.94248561    -0.74600
O585        O  0.42501238  0.84652884  0.88094424    -0.74400
O586        O  0.41038785  0.87519717  0.93462796    -0.80100
O587        O  0.37084107  0.85649283  0.87612272    -0.78300
O588        O  0.41063715  0.92496652  0.88725925    -1.14400
O589        O  0.36788940  0.91099246  0.83148399    -0.73600
C590        C  0.37972119  0.93871702  0.81826784     0.97100
C591        C  0.46349672  0.96187877  0.94390919     0.93500
Al592      Al  0.44050063  0.88956200  0.91015423     1.55600
O593        O  0.38773021  0.00221957  0.88920696    -0.78200
C594        C  0.39482745  0.83327121  0.87569173     0.97700
C595        C  0.48338596  0.92789499  0.87579938     0.92500
O596        O  0.46161518  0.95505533  0.86641032    -0.83600
O597        O  0.04319008  0.04885115  0.64123973    -0.83000
C598        C  0.11781091  0.10320902  0.56267543     0.96300
O599        O  0.09204565  0.12199293  0.56631690    -0.72100
O600        O  0.04307814  0.07198202  0.56031753    -0.75700
Al601      Al  0.06207955  0.10897532  0.59153870     1.49000
C602        C  0.03605173  0.03607547  0.56134579     0.91600
O603        O  0.11242414  0.99771805  0.61289185    -0.81900
O604        O  0.13522647  0.09035559  0.67046090    -0.75500
Al605      Al  0.07903360  0.02799609  0.62673765     1.90100
O606        O  0.15606392  0.03468756  0.63537590    -0.74600
O607        O  0.13176519  0.14233462  0.62485356    -0.74400
O608        O  0.13808627  0.08379725  0.58525444    -0.80100
O609        O  0.07768600  0.15323270  0.61966225    -0.78300
O610        O  0.09190262  0.07449248  0.61543489    -1.14400
O611        O  0.02519263  0.09984186  0.61020587    -0.73600
C612        C  0.02020596  0.07398947  0.62904021     0.97100
C613        C  0.14444966  0.00237590  0.62295729     0.93500
Al614      Al  0.13644686  0.08673894  0.62799987     1.55600
O615        O  0.04761437  0.01624313  0.58641340    -0.78200
C616        C  0.10798144  0.16620151  0.62475668     0.97700
C617        C  0.12371207  0.06349660  0.68453888     0.92500
O618        O  0.10788259  0.03350122  0.66989242    -0.83600
O619        O  0.21065222  0.04910211  0.86370622    -0.83000
C620        C  0.13219383  0.11044022  0.93694039     0.96300
O621        O  0.15939908  0.12679500  0.93465212    -0.72100
O622        O  0.20736520  0.07396951  0.94278357    -0.75700
Al623      Al  0.19044352  0.11122860  0.91125024     1.49000
C624        C  0.21364670  0.03768527  0.94188957     0.91600
O625        O  0.13702984  0.00167196  0.88753798    -0.81900
O626        O  0.11913948  0.09318575  0.82939551    -0.75500
Al627      Al  0.17268600  0.03022414  0.87607590     1.90100
O628        O  0.09543160  0.04171034  0.86475887    -0.74600
O629        O  0.12280754  0.14808139  0.87377034    -0.74400
O630        O  0.11239184  0.09177152  0.91374541    -0.80100
O631        O  0.17805034  0.15519237  0.88304146    -0.78300
O632        O  0.16034088  0.07785324  0.88630619    -1.14400
O633        O  0.22798954  0.10036335  0.89444244    -0.73600
C634        C  0.23335038  0.07440702  0.87593625     0.97100
C635        C  0.10530050  0.00819748  0.87595811     0.93500
Al636      Al  0.11629840  0.09249796  0.87166951     1.55600
O637        O  0.20174582  0.01787538  0.91700968    -0.78200
C638        C  0.14818337  0.16984845  0.87545291     0.97700
C639        C  0.13017951  0.06452267  0.81637742     0.92500
O640        O  0.14603403  0.03548785  0.83260151    -0.83600
C641        C  0.12763467  0.06719933  0.71847102    -0.07300
C642        C  0.10195650  0.08719941  0.72789778    -0.18500
C643        C  0.10103776  0.08600154  0.75932372     0.09900
C644        C  0.12688255  0.06491445  0.78207674    -0.07300
C645        C  0.15236301  0.04488864  0.77221100    -0.18500
C646        C  0.15372673  0.04706519  0.74114511     0.09900
S647        S  0.06493023  0.10915510  0.76817625    -0.33500
S648        S  0.19015380  0.02499862  0.73223387    -0.33500
H649        H  0.18970543  0.04963110  0.70659991     0.27900
H650        H  0.06088592  0.07892551  0.78858947     0.27900
H651        H  0.08197892  0.10295071  0.71039652     0.18500
H652        H  0.17203454  0.02804039  0.78908349     0.18500
C653        C  0.12548651  0.11095454  0.96809065    -0.07300
C654        C  0.11482462  0.07568675  0.97885742    -0.18500
C655        C  0.11357019  0.07164794  0.50994192     0.09900
C656        C  0.12301104  0.10388173  0.53111649    -0.07300
C657        C  0.13274250  0.13959672  0.52019820    -0.18500
C658        C  0.13425559  0.14342371  0.98910762     0.09900
S659        S  0.09920335  0.02435619  0.52012579    -0.33500
S660        S  0.14638422  0.19099384  0.97747481    -0.33500
H661        H  0.12591398  0.18850455  0.94583451     0.27900
H662        H  0.10499914  0.02991350  0.55253547     0.27900
H663        H  0.10825851  0.05058540  0.96309510     0.18500
H664        H  0.13882737  0.16482316  0.53595282     0.18500
C665        C  0.48233383  0.97985655  0.97437491    -0.07300
C666        C  0.47677195  0.02006777  0.97877072    -0.18500
C667        C  0.99225895  0.03869111  0.50731684     0.09900
C668        C  0.01496712  0.01696786  0.53226760    -0.07300
C669        C  0.01986411  0.97652812  0.52823242    -0.18500
C670        C  0.50429002  0.95782692  0.99970162     0.09900
S671        S  0.98075950  0.08982627  0.51029954    -0.33500
S672        S  0.51530395  0.90646161  0.99704982    -0.33500
H673        H  0.52254721  0.91117258  0.96809399     0.27900
H674        H  0.97939810  0.08647300  0.54146529     0.27900
H675        H  0.45938064  0.03710996  0.95999168     0.18500
H676        H  0.03737431  0.95964932  0.54704164     0.18500
C677        C  0.26812447  0.06949624  0.87155561    -0.07300
C678        C  0.29759360  0.07405804  0.89773864    -0.18500
C679        C  0.32894149  0.05488899  0.89875434     0.09900
C680        C  0.32976669  0.02844303  0.87424298    -0.07300
C681        C  0.30180665  0.02844333  0.84668058    -0.18500
C682        C  0.27204139  0.05029631  0.84462691     0.09900
S683        S  0.36670306  0.06290687  0.93175409    -0.33500
S684        S  0.23975933  0.05223859  0.80708247    -0.33500
H685        H  0.22317084  0.08643633  0.81364151     0.27900
H686        H  0.35179339  0.09088367  0.94737810     0.27900
H687        H  0.29541098  0.09005581  0.91822781     0.18500
H688        H  0.30263482  0.01027965  0.82682850     0.18500
C689        C  0.07854865  0.97749928  0.87422577    -0.07300
C690        C  0.05104979  0.97557950  0.84621154    -0.18500
C691        C  0.02124562  0.95386923  0.84438775     0.09900
C692        C  0.01797165  0.93394795  0.87135799    -0.07300
C693        C  0.04699031  0.93192394  0.89820769    -0.18500
C694        C  0.07705233  0.95369623  0.90007195     0.09900
S695        S  0.98713772  0.95488320  0.80754514    -0.33500
S696        S  0.11073942  0.95288707  0.93713455    -0.33500
H697        H  0.11929715  0.99300895  0.93705016     0.27900
H698        H  0.47078873  0.92030340  0.81330792     0.27900
H699        H  0.05214874  0.99264443  0.82583464     0.18500
H700        H  0.04492129  0.91696096  0.91917702     0.18500
C701        C  0.23617148  0.01926085  0.97063331    -0.07300
C702        C  0.23875361  0.03794528  0.99953015    -0.18500
C703        C  0.26131229  0.02393590  0.52758442     0.09900
C704        C  0.27943799  0.98809700  0.52746159    -0.07300
C705        C  0.27711887  0.96969666  0.49841620    -0.18500
C706        C  0.25692619  0.98576022  0.97010124     0.09900
S707        S  0.26397409  0.05279642  0.56245115    -0.33500
S708        S  0.25958152  0.96233649  0.93429133    -0.33500
H709        H  0.26321471  0.99817025  0.91948602     0.27900
H710        H  0.30005746  0.05605556  0.57051532     0.27900
H711        H  0.22365503  0.06429552  0.00026003     0.18500
H712        H  0.29166148  0.94290639  0.49769474     0.18500
C713        C  0.38448115  0.89430198  0.53597748    -0.07300
C714        C  0.37443281  0.92835023  0.51756180    -0.18500
C715        C  0.37277521  0.92883610  0.98558942     0.09900
C716        C  0.38196806  0.89455552  0.97157149    -0.07300
C717        C  0.39243474  0.86059848  0.99036132    -0.18500
C718        C  0.39279331  0.85971385  0.52193078     0.09900
S719        S  0.35977236  0.97424816  0.96447048    -0.33500
S720        S  0.40401005  0.81384452  0.54327899    -0.33500
H721        H  0.41726296  0.83129233  0.57317776     0.27900
H722        H  0.38758732  0.97445444  0.95159127     0.27900
H723        H  0.36630489  0.95431055  0.52777396     0.18500
H724        H  0.39980029  0.83414780  0.98014071     0.18500
C725        C  0.37215006  0.93410905  0.71927791    -0.07300
C726        C  0.36890828  0.97038483  0.73377712    -0.18500
C727        C  0.36937962  0.97252027  0.76537293     0.09900
C728        C  0.37413527  0.93769765  0.78374565    -0.07300
C729        C  0.37652187  0.90124960  0.76926632    -0.18500
C730        C  0.37563624  0.89904162  0.73742211     0.09900
S731        S  0.36220090  0.02048375  0.78023863    -0.33500
S732        S  0.37748944  0.85055811  0.72116725    -0.33500
H733        H  0.40910262  0.85790232  0.71527388     0.27900
H734        H  0.34438783  0.00599210  0.80061684     0.27900
H735        H  0.36547027  0.99757884  0.72026053     0.18500
H736        H  0.38003700  0.87428910  0.78308299     0.18500
C737        C  0.42479793  0.02454041  0.63058054    -0.07300
C738        C  0.45173395  0.02763340  0.65882845    -0.18500
C739        C  0.48149370  0.04926826  0.66045327     0.09900
C740        C  0.48536083  0.06786200  0.63315047    -0.07300
C741        C  0.45667110  0.06881701  0.60599222    -0.18500
C742        C  0.42678166  0.04686932  0.60420062     0.09900
S743        S  0.01438571  0.05108239  0.69771645    -0.33500
S744        S  0.39420307  0.04461731  0.56653536    -0.33500
H745        H  0.38925233  0.00361297  0.56752034     0.27900
H746        H  0.02443311  0.08945201  0.69221929     0.27900
H747        H  0.45019432  0.01166466  0.67957879     0.18500
H748        H  0.45889424  0.08302830  0.58480462     0.18500
C749        C  0.23107105  0.93468108  0.61614262    -0.07300
C750        C  0.22308773  0.93636912  0.64483093    -0.18500
C751        C  0.19194839  0.95300061  0.64658151     0.09900
C752        C  0.16929309  0.97132635  0.61980166    -0.07300
C753        C  0.17578346  0.96678516  0.59061826    -0.18500
C754        C  0.20596267  0.94781529  0.58835310     0.09900
S755        S  0.18236044  0.94961942  0.68355747    -0.33500
S756        S  0.21348933  0.94418313  0.55026045    -0.33500
H757        H  0.18177257  0.96022727  0.53231816     0.27900
H758        H  0.14675793  0.95647769  0.67132760     0.27900
H759        H  0.24161475  0.92553565  0.66617087     0.18500
H760        H  0.15834123  0.98047071  0.56995050     0.18500
C761        C  0.14227776  0.21299902  0.87211913    -0.07300
C762        C  0.16207802  0.23764592  0.89601244    -0.18500
C763        C  0.15239238  0.27704153  0.89868285     0.09900
C764        C  0.12232092  0.29256130  0.87686774    -0.07300
C765        C  0.10302708  0.26815966  0.85253407    -0.18500
C766        C  0.11294496  0.22893184  0.84967637     0.09900
S767        S  0.17864687  0.30547839  0.93129700    -0.33500
S768        S  0.08788133  0.20104761  0.81617767    -0.33500
H769        H  0.11520709  0.17654788  0.81400682     0.27900
H770        H  0.15145792  0.32880903  0.93528703     0.27900
H771        H  0.18411466  0.22555100  0.91379669     0.18500
H772        H  0.08097667  0.28025601  0.83476186     0.18500
C773        C  0.13480919  0.29060094  0.62669924    -0.07300
C774        C  0.10453344  0.27882392  0.63379407    -0.18500
C775        C  0.09559351  0.23887974  0.63480098     0.09900
C776        C  0.11672337  0.20923266  0.62769267    -0.07300
C777        C  0.14725818  0.22103216  0.62113970    -0.18500
C778        C  0.15637108  0.26085151  0.62043631     0.09900
S779        S  0.05791160  0.22789806  0.64675929    -0.33500
S780        S  0.19518869  0.27137352  0.61023268    -0.33500
H781        H  0.18034778  0.30220579  0.58933347     0.27900
H782        H  0.07309403  0.19558717  0.66589696     0.27900
H783        H  0.08798015  0.30093966  0.63962498     0.18500
H784        H  0.16398126  0.19902662  0.61543323     0.18500
C785        C  0.12685783  0.43586888  0.53201968    -0.07300
C786        C  0.12998034  0.47197411  0.51739970    -0.18500
C787        C  0.13082739  0.47372387  0.98623019     0.09900
C788        C  0.12687903  0.43877083  0.96808708    -0.07300
C789        C  0.12305513  0.40260761  0.98223899    -0.18500
C790        C  0.12341604  0.40067029  0.51397369     0.09900
S791        S  0.13863766  0.52146395  0.97160001    -0.33500
S792        S  0.12088155  0.35234497  0.53013445    -0.33500
H793        H  0.14923661  0.35852536  0.55691644     0.27900
H794        H  0.15952067  0.50679739  0.95375423     0.27900
H795        H  0.13294734  0.49932478  0.53071549     0.18500
H796        H  0.11972982  0.37562222  0.96843762     0.18500
C797        C  0.13241583  0.39778376  0.78399786    -0.07300
C798        C  0.13485617  0.43396642  0.76939233    -0.18500
C799        C  0.13189006  0.43571771  0.73711575     0.09900
C800        C  0.12720465  0.40055727  0.71913929    -0.07300
C801        C  0.12594024  0.36432109  0.73405339    -0.18500
C802        C  0.12833609  0.36256018  0.76612933     0.09900
S803        S  0.13556716  0.48330984  0.72034046    -0.33500
S804        S  0.12652121  0.31440032  0.78307437    -0.33500
H805        H  0.14605801  0.32441671  0.81393972     0.27900
H806        H  0.10608983  0.47807297  0.69451360     0.27900
H807        H  0.13726900  0.46120027  0.78279164     0.18500
H808        H  0.12386099  0.33707343  0.72071708     0.18500
C809        C  0.38091968  0.70699530  0.62029854    -0.07300
C810        C  0.34764850  0.71869281  0.62105152    -0.18500
C811        C  0.33864574  0.75854293  0.62319429     0.09900
C812        C  0.36302953  0.78830872  0.62392542    -0.07300
C813        C  0.39615826  0.77650313  0.62294920    -0.18500
C814        C  0.40510647  0.73685889  0.62064415     0.09900
S815        S  0.29631932  0.76900209  0.62643243    -0.33500
S816        S  0.44755898  0.72697875  0.61739881    -0.33500
H817        H  0.43598033  0.69974415  0.59255099     0.27900
H818        H  0.30780246  0.79769829  0.65019008     0.27900
H819        H  0.32854718  0.69650633  0.62116382     0.18500
H820        H  0.41544862  0.79851060  0.62302641     0.18500
C821        C  0.02511551  0.48398333  0.77776252    -0.07300
C822        C  0.00918578  0.52051809  0.77915400    -0.18500
C823        C  0.98719121  0.53799939  0.75210457     0.09900
C824        C  0.48120324  0.51849062  0.72264600    -0.07300
C825        C  0.49738246  0.48205293  0.72128095    -0.18500
C826        C  0.01941732  0.46467121  0.74833474     0.09900
S827        S  0.96663283  0.58449175  0.75628484    -0.33500
S828        S  0.54104768  0.41885348  0.74429887    -0.33500
H829        H  0.02721763  0.41449758  0.71144675     0.27900
H830        H  0.47639779  0.58552915  0.78946368     0.27900
H831        H  0.01345009  0.53505972  0.80174798     0.18500
H832        H  0.49339985  0.46755980  0.69870002     0.18500
C833        C  0.32868025  0.46872249  0.62232365    -0.07300
C834        C  0.30230100  0.46348843  0.59384139    -0.18500
C835        C  0.27179529  0.44367048  0.59292740     0.09900
C836        C  0.26705630  0.42895211  0.62113391    -0.07300
C837        C  0.29503249  0.42991979  0.64884290    -0.18500
C838        C  0.32563101  0.44979059  0.64979839     0.09900
S839        S  0.23867522  0.44068662  0.55556044    -0.33500
S840        S  0.35710862  0.45577959  0.68773033    -0.33500
H841        H  0.38510093  0.44516792  0.67678993     0.27900
H842        H  0.22086014  0.40902801  0.56404470     0.27900
H843        H  0.30455085  0.47718888  0.57242458     0.18500
H844        H  0.29163077  0.41923587  0.67079746     0.18500
C845        C  0.07915990  0.52946400  0.62148051    -0.07300
C846        C  0.07699815  0.54783227  0.64921946    -0.18500
C847        C  0.04653614  0.56684695  0.65043079     0.09900
C848        C  0.01735322  0.56755698  0.62328862    -0.07300
C849        C  0.02106217  0.55304773  0.59476425    -0.18500
C850        C  0.05169044  0.53476703  0.59348414     0.09900
S851        S  0.04473947  0.58372656  0.68848587    -0.33500
S852        S  0.05359283  0.51656488  0.55573630    -0.33500
H853        H  0.08961462  0.51904185  0.56291013     0.27900
H854        H  0.03011999  0.62054232  0.67703417     0.27900
H855        H  0.09805089  0.54449080  0.67079110     0.18500
H856        H  0.49911877  0.55359097  0.57369304     0.18500
C857        C  0.36770826  0.71056694  0.87813398    -0.07300
C858        C  0.34587199  0.73638986  0.85642093    -0.18500
C859        C  0.35522113  0.77579123  0.85352605     0.09900
C860        C  0.38711503  0.79032440  0.87293437    -0.07300
C861        C  0.40868195  0.76463757  0.89496153    -0.18500
C862        C  0.39913094  0.72540153  0.89810437     0.09900
S863        S  0.32577162  0.80562639  0.82374494    -0.33500
S864        S  0.42744813  0.69623274  0.92915779    -0.33500
H865        H  0.40113763  0.67317645  0.93477334     0.27900
H866        H  0.35139249  0.82882724  0.81705647     0.27900
H867        H  0.32216531  0.72531814  0.84047254     0.18500
H868        H  0.43230121  0.77576188  0.91101927     0.18500
C869        C  0.23446271  0.48432867  0.72068499    -0.07300
C870        C  0.23030098  0.47106474  0.74934702    -0.18500
C871        C  0.24897900  0.48762621  0.77805495     0.09900
C872        C  0.27338006  0.51727177  0.77836650    -0.07300
C873        C  0.27774324  0.53044677  0.74976843    -0.18500
C874        C  0.25887387  0.51405958  0.72098561     0.09900
S875        S  0.23886340  0.47132343  0.81304829    -0.33500
S876        S  0.26860377  0.53103943  0.68598800    -0.33500
H877        H  0.26468463  0.49398568  0.67110153     0.27900
H878        H  0.24124661  0.50907067  0.82683905     0.27900
H879        H  0.21158647  0.44836606  0.74931515     0.18500
H880        H  0.29658587  0.55305381  0.74992748     0.18500
C881        C  0.37200012  0.60341131  0.71509729    -0.07300
C882        C  0.37673381  0.56825018  0.73254410    -0.18500
C883        C  0.37904019  0.56838649  0.76471081     0.09900
C884        C  0.37650830  0.60446468  0.78007047    -0.07300
C885        C  0.37145810  0.63964216  0.76243089    -0.18500
C886        C  0.36952644  0.63953954  0.73032889     0.09900
S887        S  0.38487769  0.52146114  0.78458397    -0.33500
S888        S  0.36389627  0.68640145  0.70998073    -0.33500
H889        H  0.34695864  0.67105240  0.67996160     0.27900
H890        H  0.36122737  0.52895578  0.80150745     0.27900
H891        H  0.37995250  0.54058260  0.72128254     0.18500
H892        H  0.36866182  0.66742645  0.77371459     0.18500
C893        C  0.38245266  0.56018859  0.96809316    -0.07300
C894        C  0.38502410  0.59591158  0.98486589    -0.18500
C895        C  0.38552855  0.59652556  0.51672237     0.09900
C896        C  0.38189985  0.56076894  0.53199213    -0.07300
C897        C  0.38053460  0.52509413  0.51551394    -0.18500
C898        C  0.38152568  0.52425510  0.98430716     0.09900
S899        S  0.39302695  0.64336046  0.53698970    -0.33500
S900        S  0.38355408  0.47606202  0.96735535    -0.33500
H901        H  0.40682406  0.48748768  0.95092743     0.27900
H902        H  0.41592305  0.62790070  0.56481783     0.27900
H903        H  0.38648452  0.62362275  0.97312066     0.18500
H904        H  0.37918524  0.49732105  0.52726074     0.18500
C905        C  0.42964344  0.47338438  0.87959821    -0.07300
C906        C  0.45872469  0.47674494  0.90613764    -0.18500
C907        C  0.48913348  0.45612073  0.90811146     0.09900
C908        C  0.49149858  0.43295170  0.88232300    -0.07300
C909        C  0.46112145  0.42474941  0.85802217    -0.18500
C910        C  0.42985422  0.44413147  0.85680993     0.09900
S911        S  0.02518311  0.46328969  0.94294759    -0.33500
S912        S  0.39159745  0.43341934  0.82501493    -0.33500
H913        H  0.40534878  0.40116402  0.81255066     0.27900
H914        H  0.04299540  0.42875488  0.93901850     0.27900
H915        H  0.45836496  0.49720914  0.92487647     0.18500
H916        H  0.46259407  0.40631964  0.83847244     0.18500
C917        C  0.24145814  0.56827321  0.88242874    -0.07300
C918        C  0.21127690  0.57429727  0.85731363    -0.18500
C919        C  0.18037248  0.55528935  0.85666319     0.09900
C920        C  0.17977700  0.52907094  0.88134968    -0.07300
C921        C  0.20867950  0.52750952  0.90821314    -0.18500
C922        C  0.23912878  0.54722633  0.90923347     0.09900
S923        S  0.14424529  0.56150622  0.82195704    -0.33500
S924        S  0.27510605  0.54161908  0.94440385    -0.33500
H925        H  0.29255064  0.57571845  0.93946185     0.27900
H926        H  0.12100961  0.56984947  0.83926340     0.27900
H927        H  0.21254849  0.59057670  0.83664618     0.18500
H928        H  0.20827560  0.50880706  0.92794102     0.18500
O929        O  0.79643912  0.54480229  0.38477890    -0.83000
C930        C  0.87263004  0.60559201  0.31222222     0.96300
O931        O  0.84649294  0.62375003  0.31558924    -0.72100
O932        O  0.79737535  0.57271265  0.30814052    -0.75700
Al933      Al  0.81641691  0.60958161  0.34007223     1.49000
C934        C  0.79382576  0.53582149  0.30778811     0.91600
O935        O  0.87111283  0.49831385  0.36297443    -0.81900
O936        O  0.88863652  0.58988836  0.42063892    -0.75500
Al937      Al  0.83485517  0.52716962  0.37335631     1.90100
O938        O  0.91191909  0.53853743  0.38545722    -0.74600
O939        O  0.88530756  0.64472824  0.37550272    -0.74400
O940        O  0.89356547  0.58745021  0.33526392    -0.80100
O941        O  0.83064262  0.65368040  0.36826623    -0.78300
O942        O  0.84680374  0.57513762  0.36383993    -1.14400
O943        O  0.78035910  0.60015814  0.35901651    -0.73600
C944        C  0.77502015  0.57243015  0.37598822     0.97100
C945        C  0.90255584  0.50458468  0.37549908     0.93500
Al946      Al  0.89089312  0.58904183  0.37792195     1.55600
O947        O  0.80720747  0.51503935  0.33190833    -0.78200
C948        C  0.86066201  0.66749412  0.37474384     0.97700
C949        C  0.87730953  0.56125056  0.43345825     0.92500
O950        O  0.86027214  0.53322677  0.41695670    -0.83600
O951        O  0.96179783  0.54291128  0.11694289    -0.83000
C952        C  0.87798866  0.60237134  0.18393819     0.96300
O953        O  0.90418574  0.62086512  0.18140449    -0.72100
O954        O  0.95606307  0.57285904  0.19077587    -0.75700
Al955      Al  0.93595690  0.60821922  0.15813292     1.49000
C956        C  0.96017748  0.53606299  0.19261424     0.91600
O957        O  0.88604395  0.49537429  0.13618769    -0.81900
O958        O  0.86818230  0.58591142  0.07755923    -0.75500
Al959      Al  0.92217460  0.52471925  0.12654403     1.90100
O960        O  0.84402090  0.53270855  0.11072809    -0.74600
O961        O  0.86602449  0.63985727  0.12166299    -0.74400
O962        O  0.85897099  0.58208441  0.16117057    -0.80100
O963        O  0.92007191  0.65103605  0.12897647    -0.78300
O964        O  0.90785075  0.57221045  0.13461113    -1.14400
O965        O  0.97344297  0.60021345  0.14066368    -0.73600
C966        C  0.98192838  0.57145350  0.12630928     0.97100
C967        C  0.85444588  0.50016152  0.12329796     0.93500
Al968      Al  0.86332238  0.58407094  0.11910454     1.55600
O969        O  0.94805986  0.51423127  0.16886227    -0.78200
C970        C  0.88965456  0.66394522  0.12289286     0.97700
C971        C  0.88259273  0.55894732  0.06560916     0.92500
O972        O  0.89841500  0.52987886  0.08207615    -0.83600
O973        O  0.64694827  0.46586848  0.08219863    -0.83000
C974        C  0.63219538  0.39946209  0.18762571     0.96300
O975        O  0.61201163  0.41773053  0.16423650    -0.72100
O976        O  0.59510041  0.46458448  0.11265145    -0.75700
Al977      Al  0.61508308  0.41349755  0.12198446     1.49000
C978        C  0.60532788  0.49790515  0.12352400     0.91600
O979        O  0.70079827  0.48573878  0.16697467    -0.81900
O980        O  0.72549932  0.39845007  0.14205683    -0.75500
Al981      Al  0.67267952  0.47285405  0.12574860     1.90100
O982        O  0.70881398  0.42879001  0.19180076    -0.74600
O983        O  0.67333616  0.34666367  0.13339130    -0.74400
O984        O  0.65823638  0.38032875  0.18510676    -0.80100
O985        O  0.61911417  0.35781898  0.12633846    -0.78300
O986        O  0.65956322  0.42600720  0.13608933    -1.14400
O987        O  0.61802026  0.40976294  0.07976843    -0.73600
C988        C  0.63056378  0.43680997  0.06645376     0.97100
C989        C  0.71354766  0.46543633  0.19150423     0.93500
Al990      Al  0.68886794  0.39145496  0.16065793     1.55600
O991        O  0.63695475  0.50310697  0.13616910    -0.78200
C992        C  0.64311206  0.33368846  0.12813013     0.97700
C993        C  0.73211749  0.42537016  0.12503230     0.92500
O994        O  0.71106189  0.45306146  0.11457737    -0.83600
O995        O  0.60735721  0.46861179  0.41759330    -0.83000
C996        C  0.62591712  0.39844818  0.31492505     0.96300
O997        O  0.64586490  0.41710405  0.33820842    -0.72100
O998        O  0.66231495  0.46474345  0.38971065    -0.75700
Al999      Al  0.64169059  0.41436355  0.38012324     1.49000
C1000       C  0.65299156  0.49812024  0.37833320     0.91600
O1001       O  0.55998957  0.48748812  0.33081747    -0.81900
O1002       O  0.53236209  0.39963677  0.36140237    -0.75500
Al1003     Al  0.58455105  0.47556457  0.37317858     1.90100
O1004       O  0.54681449  0.42884009  0.30990616    -0.74600
O1005       O  0.58407206  0.34827958  0.36897531    -0.74400
O1006       O  0.59871815  0.38136752  0.31678577    -0.80100
O1007       O  0.63832721  0.35887994  0.37649897    -0.78300
O1008       O  0.59744783  0.42756678  0.36490532    -1.14400
O1009       O  0.63691802  0.41199644  0.42163685    -0.73600
C1010       C  0.62376510  0.43977377  0.43397604     0.97100
C1011       C  0.54546218  0.46581410  0.30761570     0.93500
Al1012     Al  0.56809894  0.39248164  0.34148065     1.55600
O1013       O  0.62172943  0.50395991  0.36481200    -0.78200
C1014       C  0.61437317  0.33532811  0.37500569     0.97700
C1015       C  0.52496838  0.42925525  0.37557346     0.92500
O1016       O  0.54443184  0.45875485  0.38169929    -0.83600
O1017       O  0.85324514  0.96371379  0.16873933    -0.83000
C1018       C  0.87710850  0.89356394  0.06647792     0.96300
O1019       O  0.89507221  0.91258655  0.09036617    -0.72100
O1020       O  0.90801573  0.96055496  0.14052822    -0.75700
Al1021     Al  0.88767127  0.90973207  0.13126859     1.49000
C1022       C  0.89825759  0.99393021  0.12902785     0.91600
O1023       O  0.80420787  0.98396996  0.08309575    -0.81900
O1024       O  0.77469679  0.90350177  0.09770401    -0.75500
Al1025     Al  0.82988132  0.97044615  0.12468168     1.90100
O1026       O  0.80435626  0.93083418  0.05488335    -0.74600
O1027       O  0.82526234  0.84634927  0.11396579    -0.74400
O1028       O  0.85032578  0.87527737  0.06717965    -0.80100
O1029       O  0.88080959  0.85460003  0.12737282    -0.78300
O1030       O  0.84397325  0.92394894  0.11426586    -1.14400
O1031       O  0.88153121  0.90704954  0.17227479    -0.73600
C1032       C  0.86884291  0.93459262  0.18498900     0.97100
C1033       C  0.79748848  0.96691347  0.05674845     0.93500
Al1034     Al  0.81595918  0.89169416  0.08619386     1.55600
O1035       O  0.86667540  0.00028380  0.11656572    -0.78200
C1036       C  0.85544575  0.83183084  0.12265358     0.97700
C1037       C  0.76740064  0.92782847  0.11647896     0.92500
O1038       O  0.79030247  0.94987171  0.13354146    -0.83600
O1039       O  0.89699565  0.96713767  0.33412990    -0.83000
C1040       C  0.88512765  0.89439572  0.43904606     0.96300
O1041       O  0.86444050  0.91386169  0.41670330    -0.72100
O1042       O  0.84578228  0.96326906  0.36675506    -0.75700
Al1043     Al  0.86608604  0.91226857  0.37390695     1.49000
C1044       C  0.85592673  0.99677303  0.37726010     0.91600
O1045       O  0.95086240  0.98351202  0.41990039    -0.81900
O1046       O  0.97717630  0.89952995  0.39168974    -0.75500
Al1047     Al  0.92302372  0.97275959  0.37807140     1.90100
O1048       O  0.95937612  0.92517222  0.44239596    -0.74600
O1049       O  0.92483886  0.84660719  0.38080055    -0.74400
O1050       O  0.91025324  0.87517975  0.43453776    -0.80100
O1051       O  0.87067391  0.85651805  0.37604116    -0.78300
O1052       O  0.91044933  0.92501287  0.38719466    -1.14400
O1053       O  0.86767239  0.91105894  0.33144819    -0.73600
C1054       C  0.87947322  0.93880668  0.31823482     0.97100
C1055       C  0.96336000  0.96189433  0.44383148     0.93500
Al1056     Al  0.94033758  0.88960441  0.41004237     1.55600
O1057       O  0.88753874  0.00223770  0.38922476    -0.78200
C1058       C  0.89466407  0.83332608  0.37556375     0.97700
C1059       C  0.98315041  0.92801788  0.37564906     0.92500
O1060       O  0.96136286  0.95516654  0.36629159    -0.83600
O1061       O  0.54327700  0.04898768  0.14137429    -0.83000
C1062       C  0.61791795  0.10313468  0.06272332     0.96300
O1063       O  0.59217365  0.12197086  0.06636349    -0.72100
O1064       O  0.54319775  0.07197785  0.06035173    -0.75700
Al1065     Al  0.56216602  0.10897426  0.09156638     1.49000
C1066       C  0.53608976  0.03610317  0.06141784     0.91600
O1067       O  0.61239889  0.99772833  0.11293679    -0.81900
O1068       O  0.63524336  0.09041703  0.17048934    -0.75500
Al1069     Al  0.57905426  0.02804480  0.12681960     1.90100
O1070       O  0.65606625  0.03464416  0.13547001    -0.74600
O1071       O  0.63184555  0.14230684  0.12486224    -0.74400
O1072       O  0.63816054  0.08369762  0.08530787    -0.80100
O1073       O  0.57777066  0.15321054  0.11970168    -0.78300
O1074       O  0.59195621  0.07449911  0.11548361    -1.14400
O1075       O  0.52524303  0.09984758  0.11020263    -0.73600
C1076       C  0.52026920  0.07406564  0.12909870     0.97100
C1077       C  0.64442931  0.00235581  0.12301694     0.93500
Al1078     Al  0.63650137  0.08671437  0.12804881     1.55600
O1079       O  0.54757657  0.01630498  0.08651502    -0.78200
C1080       C  0.60806787  0.16617196  0.12479139     0.97700
C1081       C  0.62371290  0.06358436  0.18457536     0.92500
O1082       O  0.60794307  0.03354296  0.16995428    -0.83600
O1083       O  0.71045147  0.04917095  0.36364116    -0.83000
C1084       C  0.63202286  0.11053907  0.43690141     0.96300
O1085       O  0.65926787  0.12682965  0.43465016    -0.72100
O1086       O  0.70718977  0.07391026  0.44279146    -0.75700
Al1087     Al  0.69031632  0.11122196  0.41126984     1.49000
C1088       C  0.71351245  0.03763661  0.44185546     0.91600
O1089       O  0.63682784  0.00175512  0.38748739    -0.81900
O1090       O  0.61901659  0.09331762  0.32938054    -0.75500
Al1091     Al  0.67249887  0.03028153  0.37602774     1.90100
O1092       O  0.59526354  0.04184392  0.36470745    -0.74600
O1093       O  0.62273236  0.14815034  0.37377574    -0.74400
O1094       O  0.61222316  0.09188160  0.41370007    -0.80100
O1095       O  0.67798511  0.15520342  0.38307561    -0.78300
O1096       O  0.66018780  0.07790383  0.38629269    -1.14400
O1097       O  0.72786057  0.10032545  0.39447916    -0.73600
C1098       C  0.73318199  0.07442401  0.37591531     0.97100
C1099       C  0.60510395  0.00831316  0.37588342     0.93500
Al1100     Al  0.61616018  0.09260434  0.37164460     1.55600
O1101       O  0.70159231  0.01788297  0.41694785    -0.78200
C1102       C  0.64812636  0.16988217  0.37545996     0.97700
C1103       C  0.63001818  0.06463971  0.31635270     0.92500
O1104       O  0.64582586  0.03557395  0.33256486    -0.83600
C1105       C  0.62758780  0.06734169  0.21848930    -0.07300
C1106       C  0.60190654  0.08737882  0.22788567    -0.18500
C1107       C  0.60095090  0.08619049  0.25930181     0.09900
C1108       C  0.62674711  0.06504750  0.28206133    -0.07300
C1109       C  0.65221933  0.04497911  0.27221643    -0.18500
C1110       C  0.65363618  0.04717899  0.24117258     0.09900
S1111       S  0.56486445  0.10942549  0.26813392    -0.33500
S1112       S  0.69006636  0.02510906  0.23227557    -0.33500
H1113       H  0.68981094  0.05002392  0.20684968     0.27900
H1114       H  0.56075733  0.07921760  0.28853824     0.27900
H1115       H  0.58195054  0.10315157  0.21036422     0.18500
H1116       H  0.67184944  0.02807957  0.28909288     0.18500
C1117       C  0.62527468  0.11108825  0.46802549    -0.07300
C1118       C  0.61458802  0.07583022  0.47877949    -0.18500
C1119       C  0.61379652  0.07150445  0.01002249     0.09900
C1120       C  0.62313752  0.10378550  0.03116510    -0.07300
C1121       C  0.63281101  0.13951353  0.02021698    -0.18500
C1122       C  0.63406407  0.14355288  0.48904458     0.09900
S1123       S  0.59951077  0.02417998  0.02023524    -0.33500
S1124       S  0.64622821  0.19111143  0.47741945    -0.33500
H1125       H  0.62581003  0.18861372  0.44576249     0.27900
H1126       H  0.60480685  0.02995378  0.05255606     0.27900
H1127       H  0.60800865  0.05073162  0.46301079     0.18500
H1128       H  0.63883091  0.16476891  0.03594554     0.18500
C1129       C  0.98223081  0.97985850  0.47429413    -0.07300
C1130       C  0.97665054  0.02005804  0.47872037    -0.18500
C1131       C  0.49235613  0.03871625  0.00736467     0.09900
C1132       C  0.51501131  0.01698893  0.03234730    -0.07300
C1133       C  0.51988559  0.97653971  0.02834401    -0.18500
C1134       C  0.00423593  0.95782756  0.49958968     0.09900
S1135       S  0.48091405  0.08988426  0.01029100    -0.33500
S1136       S  0.01526383  0.90647481  0.49689504    -0.33500
H1137       H  0.02243355  0.91121757  0.46790929     0.27900
H1138       H  0.47956632  0.08663554  0.04146567     0.27900
H1139       H  0.95922013  0.03709756  0.45996915     0.18500
H1140       H  0.53736302  0.95966147  0.04717940     0.18500
C1141       C  0.76794440  0.06951461  0.37151459    -0.07300
C1142       C  0.79743264  0.07416667  0.39766433    -0.18500
C1143       C  0.82878104  0.05500029  0.39868505     0.09900
C1144       C  0.82957901  0.02845580  0.37422786    -0.07300
C1145       C  0.80160535  0.02838519  0.34668091    -0.18500
C1146       C  0.77184564  0.05024527  0.34460920     0.09900
S1147       S  0.86657056  0.06315126  0.43162404    -0.33500
S1148       S  0.73955947  0.05211535  0.30707219    -0.33500
H1149       H  0.72299785  0.08636235  0.31358011     0.27900
H1150       H  0.85179556  0.09160064  0.44696608     0.27900
H1151       H  0.79527092  0.09023334  0.41813370     0.18500
H1152       H  0.80242404  0.01016360  0.32684916     0.18500
C1153       C  0.57832215  0.97763833  0.37409348    -0.07300
C1154       C  0.55079134  0.97585305  0.34609531    -0.18500
C1155       C  0.52097096  0.95416289  0.34424379     0.09900
C1156       C  0.51772569  0.93409999  0.37116743    -0.07300
C1157       C  0.54677294  0.93194613  0.39798337    -0.18500
C1158       C  0.57683858  0.95372351  0.39988077     0.09900
S1159       S  0.48681109  0.95540057  0.30743909    -0.33500
S1160       S  0.61054324  0.95280630  0.43692709    -0.33500
H1161       H  0.61896361  0.99298859  0.43698074     0.27900
H1162       H  0.97045572  0.92075263  0.31311306     0.27900
H1163       H  0.55187675  0.99301311  0.32576079     0.18500
H1164       H  0.54472462  0.91688313  0.41891816     0.18500
C1165       C  0.73611993  0.01916979  0.47057367    -0.07300
C1166       C  0.73925294  0.03818846  0.49945106    -0.18500
C1167       C  0.76069467  0.02369600  0.02771281     0.09900
C1168       C  0.77938022  0.98827857  0.02756250    -0.07300
C1169       C  0.77758208  0.97022373  0.99850289    -0.18500
C1170       C  0.75644518  0.98528302  0.47002705     0.09900
S1171       S  0.76236860  0.05187785  0.06269247    -0.33500
S1172       S  0.75853457  0.96136935  0.43422416    -0.33500
H1173       H  0.76266272  0.99694117  0.41929932     0.27900
H1174       H  0.79835769  0.05637163  0.07098082     0.27900
H1175       H  0.72456288  0.06486118  0.50020863     0.18500
H1176       H  0.79250782  0.94373686  0.99779600     0.18500
C1177       C  0.88459047  0.89459208  0.03607595    -0.07300
C1178       C  0.87406693  0.92840985  0.01747762    -0.18500
C1179       C  0.87309210  0.92883390  0.48565816     0.09900
C1180       C  0.88179431  0.89442909  0.47146399    -0.07300
C1181       C  0.89177023  0.86023852  0.49005363    -0.18500
C1182       C  0.89345804  0.86014857  0.02223383     0.09900
S1183       S  0.86063019  0.97448379  0.46474040    -0.33500
S1184       S  0.90539475  0.81457310  0.04385434    -0.33500
H1185       H  0.91836363  0.83238055  0.07364684     0.27900
H1186       H  0.88829798  0.97420785  0.45166822     0.27900
H1187       H  0.86555756  0.95424500  0.02754855     0.18500
H1188       H  0.89874241  0.83369165  0.47967269     0.18500
C1189       C  0.87197196  0.93414712  0.21928569    -0.07300
C1190       C  0.86877572  0.97044317  0.23377645    -0.18500
C1191       C  0.86920187  0.97259872  0.26535568     0.09900
C1192       C  0.87388954  0.93777846  0.28372157    -0.07300
C1193       C  0.87622084  0.90131108  0.26924804    -0.18500
C1194       C  0.87535662  0.89908048  0.23741380     0.09900
S1195       S  0.86205151  0.02058189  0.28020641    -0.33500
S1196       S  0.87708553  0.85057799  0.22114696    -0.33500
H1197       H  0.90871938  0.85779362  0.21525629     0.27900
H1198       H  0.84415338  0.00613000  0.30053099     0.27900
H1199       H  0.86540564  0.99763684  0.22026563     0.18500
H1200       H  0.87967505  0.87435233  0.28306002     0.18500
C1201       C  0.92489155  0.02452382  0.13064233    -0.07300
C1202       C  0.95175544  0.02786249  0.15891890    -0.18500
C1203       C  0.98148551  0.04954593  0.16050002     0.09900
C1204       C  0.98539330  0.06792513  0.13312902    -0.07300
C1205       C  0.95677575  0.06859306  0.10590878    -0.18500
C1206       C  0.92693037  0.04659337  0.10415882     0.09900
S1207       S  0.51432236  0.05162037  0.19783234    -0.33500
S1208       S  0.89450640  0.04387865  0.06642631    -0.33500
H1209       H  0.88973195  0.00286401  0.06767402     0.27900
H1210       H  0.52431148  0.08996190  0.19218166     0.27900
H1211       H  0.95017737  0.01206906  0.17973503     0.18500
H1212       H  0.95904362  0.08259914  0.08465543     0.18500
C1213       C  0.73104910  0.93473187  0.11616035    -0.07300
C1214       C  0.72308993  0.93641597  0.14485833    -0.18500
C1215       C  0.69195100  0.95302288  0.14662606     0.09900
C1216       C  0.66925819  0.97130404  0.11984649    -0.07300
C1217       C  0.67572337  0.96675998  0.09065289    -0.18500
C1218       C  0.70591942  0.94784161  0.08837603     0.09900
S1219       S  0.68242664  0.94970771  0.18363387    -0.33500
S1220       S  0.71342624  0.94418221  0.05027473    -0.33500
H1221       H  0.68215351  0.96133184  0.03243750     0.27900
H1222       H  0.64681077  0.95649396  0.17142896     0.27900
H1223       H  0.74164436  0.92561661  0.16619647     0.18500
H1224       H  0.65823693  0.98039500  0.06998565     0.18500
C1225       C  0.64223600  0.21302244  0.37209786    -0.07300
C1226       C  0.66217336  0.23770305  0.39588361    -0.18500
C1227       C  0.65249623  0.27708812  0.39859353     0.09900
C1228       C  0.62228804  0.29255108  0.37692983    -0.07300
C1229       C  0.60286214  0.26811755  0.35269554    -0.18500
C1230       C  0.61278019  0.22891240  0.34978608     0.09900
S1231       S  0.67895575  0.30558284  0.43106196    -0.33500
S1232       S  0.58754693  0.20100153  0.31638333    -0.33500
H1233       H  0.61485109  0.17659263  0.31402451     0.27900
H1234       H  0.65183996  0.32886912  0.43525900     0.27900
H1235       H  0.68431568  0.22564301  0.41356599     0.18500
H1236       H  0.58070715  0.28017700  0.33502283     0.18500
C1237       C  0.63484852  0.29055938  0.12669626    -0.07300
C1238       C  0.60456185  0.27877888  0.13376750    -0.18500
C1239       C  0.59564330  0.23883598  0.13479859     0.09900
C1240       C  0.61681072  0.20919469  0.12774317    -0.07300
C1241       C  0.64736852  0.22099546  0.12123464    -0.18500
C1242       C  0.65645512  0.26081629  0.12049889     0.09900
S1243       S  0.55792960  0.22785306  0.14670689    -0.33500
S1244       S  0.69529018  0.27134614  0.11032711    -0.33500
H1245       H  0.68043564  0.30211822  0.08936838     0.27900
H1246       H  0.57311070  0.19558099  0.16589387     0.27900
H1247       H  0.58797834  0.30089176  0.13955593     0.18500
H1248       H  0.66412439  0.19899146  0.11557635     0.18500
C1249       C  0.62690689  0.43585842  0.03205469    -0.07300
C1250       C  0.63007690  0.47195717  0.01744652    -0.18500
C1251       C  0.63064125  0.47374683  0.48615207     0.09900
C1252       C  0.62676255  0.43877990  0.46802979    -0.07300
C1253       C  0.62299892  0.40260942  0.48220165    -0.18500
C1254       C  0.62347170  0.40065836  0.01400941     0.09900
S1255       S  0.63831656  0.52151669  0.47148484    -0.33500
S1256       S  0.62093443  0.35233186  0.03016762    -0.33500
H1257       H  0.64927953  0.35851484  0.05695868     0.27900
H1258       H  0.65927113  0.50693116  0.45367672     0.27900
H1259       H  0.63305419  0.49930657  0.03076392     0.18500
H1260       H  0.61971437  0.37561423  0.46841403     0.18500
C1261       C  0.63229436  0.39763262  0.28397011    -0.07300
C1262       C  0.63474926  0.43381075  0.26936787    -0.18500
C1263       C  0.63182525  0.43555743  0.23710219     0.09900
C1264       C  0.62716018  0.40039700  0.21912862    -0.07300
C1265       C  0.62588093  0.36415958  0.23403892    -0.18500
C1266       C  0.62823426  0.36240355  0.26610849     0.09900
S1267       S  0.63555058  0.48314484  0.22034226    -0.33500
S1268       S  0.62640443  0.31424762  0.28305604    -0.33500
H1269       H  0.64590489  0.32427243  0.31393093     0.27900
H1270       H  0.60606331  0.47794647  0.19451876     0.27900
H1271       H  0.63715266  0.46104694  0.28276378     0.18500
H1272       H  0.62381875  0.33691126  0.22070592     0.18500
C1273       C  0.88085324  0.70706162  0.12029782    -0.07300
C1274       C  0.84764009  0.71877079  0.12121643    -0.18500
C1275       C  0.83865317  0.75863146  0.12334492     0.09900
C1276       C  0.86298367  0.78838899  0.12387253    -0.07300
C1277       C  0.89604469  0.77657386  0.12271982    -0.18500
C1278       C  0.90498368  0.73691973  0.12044990     0.09900
S1279       S  0.79644220  0.76912180  0.12686000    -0.33500
S1280       S  0.94734543  0.72701627  0.11699195    -0.33500
H1281       H  0.93565720  0.69964277  0.09226625     0.27900
H1282       H  0.80806001  0.79796548  0.15047452     0.27900
H1283       H  0.82858476  0.69658884  0.12147985     0.18500
H1284       H  0.91528537  0.79858133  0.12264106     0.18500
C1285       C  0.52501562  0.48387418  0.27771232    -0.07300
C1286       C  0.50914180  0.52044322  0.27911289    -0.18500
C1287       C  0.48717161  0.53796520  0.25207095     0.09900
C1288       C  0.98113201  0.51846181  0.22261070    -0.07300
C1289       C  0.99728045  0.48200147  0.22123799    -0.18500
C1290       C  0.51927689  0.46456035  0.24828258     0.09900
S1291       S  0.46667019  0.58448647  0.25627566    -0.33500
S1292       S  0.04086158  0.41872275  0.24426382    -0.33500
H1293       H  0.52720327  0.41451434  0.21135754     0.27900
H1294       H  0.97602423  0.58521263  0.28945860     0.27900
H1295       H  0.51343529  0.53498767  0.30170909     0.18500
H1296       H  0.99327468  0.46750353  0.19865709     0.18500
C1297       C  0.82861673  0.46879123  0.12230445    -0.07300
C1298       C  0.80222138  0.46357249  0.09383131    -0.18500
C1299       C  0.77173090  0.44372821  0.09292583     0.09900
C1300       C  0.76701892  0.42897839  0.12113383    -0.07300
C1301       C  0.79500948  0.42993704  0.14883121    -0.18500
C1302       C  0.82559861  0.44982127  0.14977557     0.09900
S1303       S  0.73859458  0.44074643  0.05556879    -0.33500
S1304       S  0.85711177  0.45576307  0.18769308    -0.33500
H1305       H  0.88507398  0.44512967  0.17671606     0.27900
H1306       H  0.72081034  0.40905720  0.06405087     0.27900
H1307       H  0.80444967  0.47729609  0.07241520     0.18500
H1308       H  0.79162933  0.41922573  0.17078685     0.18500
C1309       C  0.57911830  0.52941015  0.12153197    -0.07300
C1310       C  0.57693193  0.54775495  0.14927202    -0.18500
C1311       C  0.54647833  0.56681219  0.15045930     0.09900
C1312       C  0.51732252  0.56758399  0.12329344    -0.07300
C1313       C  0.52105965  0.55309086  0.09477377    -0.18500
C1314       C  0.55168470  0.53477459  0.09351721     0.09900
S1315       S  0.54464938  0.58367484  0.18850887    -0.33500
S1316       S  0.55363424  0.51662587  0.05576942    -0.33500
H1317       H  0.58966178  0.51907477  0.06298839     0.27900
H1318       H  0.53007476  0.62051285  0.17706633     0.27900
H1319       H  0.59795900  0.54437289  0.17085868     0.18500
H1320       H  0.99913037  0.55364317  0.07369768     0.18500
C1321       C  0.86757862  0.71062371  0.37799886    -0.07300
C1322       C  0.84576376  0.73642188  0.35624445    -0.18500
C1323       C  0.85510644  0.77582655  0.35334861     0.09900
C1324       C  0.88697758  0.79037771  0.37278644    -0.07300
C1325       C  0.90852978  0.76470948  0.39483954    -0.18500
C1326       C  0.89897909  0.72547802  0.39799219     0.09900
S1327       S  0.82567538  0.80565026  0.32354415    -0.33500
S1328       S  0.92725884  0.69634419  0.42909479    -0.33500
H1329       H  0.90092885  0.67330475  0.43469288     0.27900
H1330       H  0.85129791  0.82891288  0.31692303     0.27900
H1331       H  0.82207552  0.72533127  0.34027620     0.18500
H1332       H  0.93213059  0.77585140  0.41091875     0.18500
C1333       C  0.73444527  0.48420546  0.22073654    -0.07300
C1334       C  0.73037419  0.47083696  0.24940672    -0.18500
C1335       C  0.74905932  0.48738760  0.27811759     0.09900
C1336       C  0.77335504  0.51715303  0.27841765    -0.07300
C1337       C  0.77764132  0.53041411  0.24981250    -0.18500
C1338       C  0.75878356  0.51401811  0.22103129     0.09900
S1339       S  0.73908911  0.47090497  0.31313425    -0.33500
S1340       S  0.76844110  0.53108948  0.18602426    -0.33500
H1341       H  0.76465046  0.49402554  0.17115524     0.27900
H1342       H  0.74133452  0.50862535  0.32695778     0.27900
H1343       H  0.71172368  0.44806662  0.24938130     0.18500
H1344       H  0.79641629  0.55309650  0.24996351     0.18500
C1345       C  0.87189403  0.60345593  0.21505686    -0.07300
C1346       C  0.87652787  0.56827072  0.23246654    -0.18500
C1347       C  0.87881596  0.56838134  0.26462866     0.09900
C1348       C  0.87637641  0.60446235  0.28002085    -0.07300
C1349       C  0.87141283  0.63966323  0.26241660    -0.18500
C1350       C  0.86949039  0.63958228  0.23031779     0.09900
S1351       S  0.88451684  0.52141940  0.28444839    -0.33500
S1352       S  0.86395172  0.68646567  0.21000761    -0.33500
H1353       H  0.84694896  0.67115932  0.17999042     0.27900
H1354       H  0.86103585  0.52903825  0.30152120     0.27900
H1355       H  0.87968194  0.54059915  0.22117953     0.18500
H1356       H  0.86867505  0.66744810  0.27372511     0.18500
C1357       C  0.88249879  0.56027384  0.46809910    -0.07300
C1358       C  0.88490374  0.59598845  0.48485629    -0.18500
C1359       C  0.88561469  0.59648154  0.01671891     0.09900
C1360       C  0.88180662  0.56077700  0.03196882    -0.07300
C1361       C  0.88026052  0.52508839  0.01547796    -0.18500
C1362       C  0.88177552  0.52430866  0.48433357     0.09900
S1363       S  0.89331863  0.64329414  0.03700563    -0.33500
S1364       S  0.88404924  0.47616416  0.46738937    -0.33500
H1365       H  0.90716638  0.48781835  0.45087033     0.27900
H1366       H  0.91608881  0.62772813  0.06485730     0.27900
H1367       H  0.88621281  0.62372628  0.47309202     0.18500
H1368       H  0.87876650  0.49734712  0.02721560     0.18500
C1369       C  0.92966181  0.47349323  0.37963525    -0.07300
C1370       C  0.95876579  0.47691783  0.40614484    -0.18500
C1371       C  0.98916304  0.45627156  0.40812700     0.09900
C1372       C  0.99148793  0.43300173  0.38237656    -0.07300
C1373       C  0.96109375  0.42475080  0.35811381    -0.18500
C1374       C  0.92984254  0.44417468  0.35688737     0.09900
S1375       S  0.52526072  0.46354157  0.44289258    -0.33500
S1376       S  0.89157222  0.43344702  0.32510964    -0.33500
H1377       H  0.90534046  0.40126624  0.31257546     0.27900
H1378       H  0.54305987  0.42897373  0.43901698     0.27900
H1379       H  0.95843424  0.49744892  0.42484893     0.18500
H1380       H  0.96254459  0.40625376  0.33859328     0.18500
C1381       C  0.74144105  0.56819019  0.38247933    -0.07300
C1382       C  0.71125602  0.57427586  0.35738141    -0.18500
C1383       C  0.68035094  0.55525540  0.35670411     0.09900
C1384       C  0.67975696  0.52896763  0.38134664    -0.07300
C1385       C  0.70866729  0.52733148  0.40820034    -0.18500
C1386       C  0.73912111  0.54705021  0.40924586     0.09900
S1387       S  0.64421869  0.56155624  0.32201450    -0.33500
S1388       S  0.77511379  0.54131909  0.44438931    -0.33500
H1389       H  0.79256552  0.57544818  0.43952100     0.27900
H1390       H  0.62099782  0.56986568  0.33934300     0.27900
H1391       H  0.71252312  0.59062009  0.33674277     0.18500
H1392       H  0.70826332  0.50857339  0.42789688     0.18500
O1393       O  0.79645390  0.54483249  0.88476846    -0.83000
C1394       C  0.87274373  0.60558171  0.81226922     0.96300
O1395       O  0.84663831  0.62379038  0.81565452    -0.72100
O1396       O  0.79748524  0.57277841  0.80811026    -0.75700
Al1397     Al  0.81651431  0.60959695  0.84008727     1.49000
C1398       C  0.79386515  0.53589652  0.80774642     0.91600
O1399       O  0.87109755  0.49825204  0.86293702    -0.81900
O1400       O  0.88867683  0.58977905  0.92066077    -0.75500
Al1401     Al  0.83485370  0.52715059  0.87332977     1.90100
O1402       O  0.91193348  0.53842288  0.88546363    -0.74600
O1403       O  0.88541303  0.64465720  0.87557508    -0.74400
O1404       O  0.89365051  0.58739185  0.83530066    -0.80100
O1405       O  0.83075016  0.65363660  0.86834307    -0.78300
O1406       O  0.84685698  0.57510633  0.86384584    -1.14400
O1407       O  0.78040537  0.60017028  0.85897161    -0.73600
C1408       C  0.77504477  0.57246648  0.87595355     0.97100
C1409       C  0.90254700  0.50448504  0.87547991     0.93500
Al1410     Al  0.89095734  0.58895798  0.87795462     1.55600
O1411       O  0.80718727  0.51508844  0.83186742    -0.78200
C1412       C  0.86077849  0.66743206  0.87484197     0.97700
C1413       C  0.87730898  0.56115276  0.93345744     0.92500
O1414       O  0.86026785  0.53314771  0.91693498    -0.83600
O1415       O  0.96186221  0.54285875  0.61698289    -0.83000
C1416       C  0.87804823  0.60233800  0.68395736     0.96300
O1417       O  0.90422719  0.62085092  0.68140354    -0.72100
O1418       O  0.95610146  0.57285292  0.69079388    -0.75700
Al1419     Al  0.93600204  0.60818130  0.65813978     1.49000
C1420       C  0.96022405  0.53606086  0.69264921     0.91600
O1421       O  0.88610566  0.49530374  0.63621034    -0.81900
O1422       O  0.86822731  0.58582410  0.57757912    -0.75500
Al1423     Al  0.92223771  0.52466430  0.62657648     1.90100
O1424       O  0.84407833  0.53264359  0.61076852    -0.74600
O1425       O  0.86607805  0.63979377  0.62166410    -0.74400
O1426       O  0.85903191  0.58203584  0.66119900    -0.80100
O1427       O  0.92012230  0.65095819  0.62895809    -0.78300
O1428       O  0.90790316  0.57215425  0.63463130    -1.14400
O1429       O  0.97349044  0.60017100  0.64068465    -0.73600
C1430       C  0.98198004  0.57141483  0.62633309     0.97100
C1431       C  0.85450616  0.50009285  0.62332758     0.93500
Al1432     Al  0.86337441  0.58400482  0.61912629     1.55600
O1433       O  0.94811352  0.51420526  0.66890779    -0.78200
C1434       C  0.88971066  0.66387502  0.62288056     0.97700
C1435       C  0.88266231  0.55888307  0.56562976     0.92500
O1436       O  0.89849102  0.52981628  0.58209804    -0.83600
O1437       O  0.64696845  0.46586099  0.58215110    -0.83000
C1438       C  0.63222103  0.39959970  0.68763035     0.96300
O1439       O  0.61203574  0.41785106  0.66423316    -0.72100
O1440       O  0.59513202  0.46464065  0.61261993    -0.75700
Al1441     Al  0.61509723  0.41355872  0.62197927     1.49000
C1442       C  0.60536822  0.49796770  0.62346702     0.91600
O1443       O  0.70083546  0.48581149  0.66690844    -0.81900
O1444       O  0.72550841  0.39846668  0.64204827    -0.75500
Al1445     Al  0.67270962  0.47288490  0.62569286     1.90100
O1446       O  0.70883243  0.42888945  0.69177368    -0.74600
O1447       O  0.67332871  0.34668930  0.63342056    -0.74400
O1448       O  0.65825188  0.38044480  0.68511457    -0.80100
O1449       O  0.61910943  0.35787513  0.62636430    -0.78300
O1450       O  0.65958152  0.42605749  0.63606624    -1.14400
O1451       O  0.61801569  0.40977776  0.57975818    -0.73600
C1452       C  0.63055196  0.43680998  0.56642252     0.97100
C1453       C  0.71357180  0.46553420  0.69145397     0.93500
Al1454     Al  0.68887794  0.39151830  0.66065610     1.55600
O1455       O  0.63699667  0.50317207  0.63609746    -0.78200
C1456       C  0.64309697  0.33372888  0.62815577     0.97700
C1457       C  0.73213735  0.42536402  0.62501051     0.92500
O1458       O  0.71108702  0.45305385  0.61453265    -0.83600
O1459       O  0.60744668  0.46862702  0.91765527    -0.83000
C1460       C  0.62602688  0.39855196  0.81494944     0.96300
O1461       O  0.64596325  0.41719332  0.83824524    -0.72100
O1462       O  0.66237322  0.46481865  0.88974724    -0.75700
Al1463     Al  0.64177060  0.41441103  0.88015564     1.49000
C1464       C  0.65302832  0.49819257  0.87836513     0.91600
O1465       O  0.56000286  0.48755385  0.83089935    -0.81900
O1466       O  0.53240423  0.39968538  0.86133345    -0.75500
Al1467     Al  0.58460483  0.47558994  0.87324826     1.90100
O1468       O  0.54695955  0.42892832  0.80991119    -0.74600
O1469       O  0.58412456  0.34830776  0.86892682    -0.74400
O1470       O  0.59883509  0.38145047  0.81679934    -0.80100
O1471       O  0.63839579  0.35889865  0.87651254    -0.78300
O1472       O  0.59752238  0.42760994  0.86493728    -1.14400
O1473       O  0.63700007  0.41201293  0.92166998    -0.73600
C1474       C  0.62385999  0.43978463  0.93402517     0.97100
C1475       C  0.54554981  0.46590091  0.80766077     0.93500
Al1476     Al  0.56818850  0.39254558  0.84146375     1.55600
O1477       O  0.62175845  0.50401822  0.86486416    -0.78200
C1478       C  0.61442332  0.33534294  0.87496618     0.97700
C1479       C  0.52501351  0.42924659  0.87556891     0.92500
O1480       O  0.54450331  0.45872164  0.88179176    -0.83600
O1481       O  0.85329736  0.96363184  0.66870876    -0.83000
C1482       C  0.87705126  0.89335518  0.56639615     0.96300
O1483       O  0.89500686  0.91247540  0.59022903    -0.72100
O1484       O  0.90797430  0.96051700  0.64032520    -0.75700
Al1485     Al  0.88769288  0.90966800  0.63117190     1.49000
C1486       C  0.89816495  0.99390629  0.62888127     0.91600
O1487       O  0.80407582  0.98375169  0.58304495    -0.81900
O1488       O  0.77468604  0.90341772  0.59763700    -0.75500
Al1489     Al  0.82984581  0.97029928  0.62464757     1.90100
O1490       O  0.80443104  0.93066593  0.55483606    -0.74600
O1491       O  0.82528750  0.84625761  0.61400089    -0.74400
O1492       O  0.85032234  0.87502884  0.56718249    -0.80100
O1493       O  0.88083937  0.85452546  0.62734921    -0.78300
O1494       O  0.84398152  0.92383040  0.61422260    -1.14400
O1495       O  0.88166194  0.90703039  0.67222360    -0.73600
C1496       C  0.86897223  0.93454857  0.68495945     0.97100
C1497       C  0.79748916  0.96672864  0.55668455     0.93500
Al1498     Al  0.81597333  0.89154766  0.58617259     1.55600
O1499       O  0.86656727  0.00023204  0.61647074    -0.78200
C1500       C  0.85548058  0.83174899  0.62267689     0.97700
C1501       C  0.76741256  0.92768334  0.61646589     0.92500
O1502       O  0.79035089  0.94962317  0.63359686    -0.83600
O1503       O  0.89726383  0.96703092  0.83416801    -0.83000
C1504       C  0.88529470  0.89444268  0.93913336     0.96300
O1505       O  0.86460808  0.91387194  0.91675984    -0.72100
O1506       O  0.84597131  0.96324022  0.86676011    -0.75700
Al1507     Al  0.86627717  0.91223413  0.87395426     1.49000
C1508       C  0.85611570  0.99674633  0.87725813     0.91600
O1509       O  0.95102624  0.98347463  0.91996499    -0.81900
O1510       O  0.97737615  0.89941993  0.89182405    -0.75500
Al1511     Al  0.92324054  0.97268942  0.87812412     1.90100
O1512       O  0.95953298  0.92514818  0.94248106    -0.74600
O1513       O  0.92501586  0.84652025  0.88094087    -0.74400
O1514       O  0.91040277  0.87518812  0.93463092    -0.80100
O1515       O  0.87084661  0.85648441  0.87612628    -0.78300
O1516       O  0.91064237  0.92495934  0.88726046    -1.14400
O1517       O  0.86789530  0.91098480  0.83148529    -0.73600
C1518       C  0.87972880  0.93870949  0.81826990     0.97100
C1519       C  0.96350494  0.96187065  0.94390798     0.93500
Al1520     Al  0.94050909  0.88955382  0.91015009     1.55600
O1521       O  0.88773035  0.00221058  0.88921346    -0.78200
C1522       C  0.89483145  0.83326264  0.87569209     0.97700
C1523       C  0.98338531  0.92789509  0.87579118     0.92500
O1524       O  0.96161617  0.95505905  0.86641204    -0.83600
O1525       O  0.54321362  0.04884819  0.64126768    -0.83000
C1526       C  0.61778790  0.10320633  0.56266480     0.96300
O1527       O  0.59202999  0.12199307  0.56631918    -0.72100
O1528       O  0.54306958  0.07197685  0.56033589    -0.75700
Al1529     Al  0.56207780  0.10897075  0.59155348     1.49000
C1530       C  0.53604798  0.03606874  0.56136450     0.91600
O1531       O  0.61242602  0.99771270  0.61289523    -0.81900
O1532       O  0.63524960  0.09035818  0.67045514    -0.75500
Al1533     Al  0.57904547  0.02799283  0.62675173     1.90100
O1534       O  0.65606930  0.03468573  0.63536195    -0.74600
O1535       O  0.63176774  0.14233177  0.62484039    -0.74400
O1536       O  0.63806848  0.08378805  0.58523641    -0.80100
O1537       O  0.57769368  0.15322582  0.61967678    -0.78300
O1538       O  0.59190756  0.07448824  0.61544093    -1.14400
O1539       O  0.52520288  0.09983477  0.61023392    -0.73600
C1540       C  0.52022549  0.07398342  0.62907285     0.97100
C1541       C  0.64445166  0.00237198  0.62295041     0.93500
Al1542     Al  0.63645113  0.08673558  0.62798868     1.55600
O1543       O  0.54761392  0.01623632  0.58643207    -0.78200
C1544       C  0.60798685  0.16619680  0.62475754     0.97700
C1545       C  0.62373863  0.06350401  0.68454036     0.92500
O1546       O  0.60790896  0.03350424  0.66990099    -0.83600
O1547       O  0.71064629  0.04910497  0.86369677    -0.83000
C1548       C  0.63218785  0.11043951  0.93693714     0.96300
O1549       O  0.65939245  0.12679506  0.93464798    -0.72100
O1550       O  0.70735732  0.07396479  0.94278263    -0.75700
Al1551     Al  0.69043922  0.11122337  0.91124832     1.49000
C1552       C  0.71365102  0.03768385  0.94188526     0.91600
O1553       O  0.63703327  0.00166611  0.88753824    -0.81900
O1554       O  0.61913724  0.09317924  0.82939185    -0.75500
Al1555     Al  0.67268565  0.03022086  0.87607138     1.90100
O1556       O  0.59543166  0.04170113  0.86475838    -0.74600
O1557       O  0.62280455  0.14807383  0.87376575    -0.74400
O1558       O  0.61238809  0.09176640  0.91374330    -0.80100
O1559       O  0.67804781  0.15518412  0.88303661    -0.78300
O1560       O  0.66033806  0.07784787  0.88630344    -1.14400
O1561       O  0.72798872  0.10035438  0.89444505    -0.73600
C1562       C  0.73334804  0.07440286  0.87593433     0.97100
C1563       C  0.60530310  0.00818979  0.87596017     0.93500
Al1564     Al  0.61629543  0.09249087  0.87166647     1.55600
O1565       O  0.70175376  0.01787480  0.91700401    -0.78200
C1566       C  0.64818068  0.16984018  0.87544753     0.97700
C1567       C  0.63017941  0.06451852  0.81637311     0.92500
O1568       O  0.64602941  0.03548082  0.83259659    -0.83600
C1569       C  0.62766130  0.06721840  0.71847208    -0.07300
C1570       C  0.60197871  0.08721391  0.72789528    -0.18500
C1571       C  0.60105177  0.08600939  0.75931883     0.09900
C1572       C  0.62689207  0.06491806  0.78207351    -0.07300
C1573       C  0.65237863  0.04489942  0.77221116    -0.18500
C1574       C  0.65375197  0.04708657  0.74114816     0.09900
S1575       S  0.56493840  0.10915687  0.76816519    -0.33500
S1576       S  0.69018626  0.02503763  0.73223791    -0.33500
H1577       H  0.68975915  0.04972099  0.70663758     0.27900
H1578       H  0.56088953  0.07892239  0.78857245     0.27900
H1579       H  0.58200153  0.10296573  0.71039121     0.18500
H1580       H  0.67204746  0.02804709  0.78908517     0.18500
C1581       C  0.62547905  0.11095786  0.96808731    -0.07300
C1582       C  0.61483660  0.07568546  0.97886397    -0.18500
C1583       C  0.61357763  0.07163036  0.50994074     0.09900
C1584       C  0.62297356  0.10388478  0.53110064    -0.07300
C1585       C  0.63266033  0.13961456  0.52016755    -0.18500
C1586       C  0.63422878  0.14343786  0.98909530     0.09900
S1587       S  0.59927549  0.02431143  0.52014215    -0.33500
S1588       S  0.64633734  0.19101145  0.97745073    -0.33500
H1589       H  0.62587849  0.18849954  0.94580802     0.27900
H1590       H  0.60486744  0.02995607  0.55251645     0.27900
H1591       H  0.60828637  0.05057585  0.96310884     0.18500
H1592       H  0.63871357  0.16485388  0.53591197     0.18500
C1593       C  0.98234151  0.97984830  0.97437392    -0.07300
C1594       C  0.97677890  0.02005963  0.97876909    -0.18500
C1595       C  0.49225447  0.03868260  0.50733801     0.09900
C1596       C  0.51497108  0.01696047  0.53228370    -0.07300
C1597       C  0.51989460  0.97652952  0.52823510    -0.18500
C1598       C  0.00429708  0.95781939  0.99970136     0.09900
S1599       S  0.48072724  0.08980478  0.51033690    -0.33500
S1600       S  0.01531295  0.90645460  0.99705031    -0.33500
H1601       H  0.02256142  0.91116731  0.96809690     0.27900
H1602       H  0.47937615  0.08642630  0.54150392     0.27900
H1603       H  0.95938826  0.03710187  0.95998943     0.18500
H1604       H  0.53741518  0.95965396  0.54703892     0.18500
C1605       C  0.76812354  0.06948759  0.87155711    -0.07300
C1606       C  0.79759200  0.07405163  0.89774035    -0.18500
C1607       C  0.82894035  0.05488188  0.89875797     0.09900
C1608       C  0.82976586  0.02843084  0.87424959    -0.07300
C1609       C  0.80180644  0.02842793  0.84668733    -0.18500
C1610       C  0.77204204  0.05028307  0.84463092     0.09900
S1611       S  0.86670384  0.06291252  0.93175270    -0.33500
S1612       S  0.73976531  0.05222635  0.80708463    -0.33500
H1613       H  0.72318006  0.08642902  0.81363932     0.27900
H1614       H  0.85178648  0.09086950  0.94738657     0.27900
H1615       H  0.79540919  0.09005470  0.91822731     0.18500
H1616       H  0.80263578  0.01026259  0.82683638     0.18500
C1617       C  0.57855281  0.97749104  0.87423258    -0.07300
C1618       C  0.55105683  0.97556093  0.84621676    -0.18500
C1619       C  0.52125241  0.95385218  0.84439541     0.09900
C1620       C  0.51797458  0.93394429  0.87136971    -0.07300
C1621       C  0.54699065  0.93192978  0.89822237    -0.18500
C1622       C  0.57705328  0.95369992  0.90008418     0.09900
S1623       S  0.48714920  0.95484972  0.80754946    -0.33500
S1624       S  0.61073662  0.95290294  0.93714958    -0.33500
H1625       H  0.61930695  0.99301896  0.93705078     0.27900
H1626       H  0.97077544  0.92033453  0.81329613     0.27900
H1627       H  0.55215821  0.99261671  0.82583618     0.18500
H1628       H  0.54491902  0.91697622  0.91919449     0.18500
C1629       C  0.73618535  0.01926310  0.97062672    -0.07300
C1630       C  0.73877087  0.03794714  0.99952430    -0.18500
C1631       C  0.76126403  0.02390918  0.52759127     0.09900
C1632       C  0.77941800  0.98809198  0.52746350    -0.07300
C1633       C  0.77711757  0.96970817  0.49841586    -0.18500
C1634       C  0.75694504  0.98576713  0.97009218     0.09900
S1635       S  0.76388343  0.05273705  0.56246516    -0.33500
S1636       S  0.75960901  0.96235600  0.93428037    -0.33500
H1637       H  0.76322629  0.99819608  0.91947644     0.27900
H1638       H  0.79996288  0.05605440  0.57053592     0.27900
H1639       H  0.72367311  0.06429679  0.00025641     0.18500
H1640       H  0.79167709  0.94293221  0.49769202     0.18500
C1641       C  0.88447055  0.89431103  0.53596632    -0.07300
C1642       C  0.87437509  0.92833911  0.51753555    -0.18500
C1643       C  0.87283674  0.92883134  0.98561018     0.09900
C1644       C  0.88198393  0.89453852  0.97157648    -0.07300
C1645       C  0.89240641  0.86056082  0.99035025    -0.18500
C1646       C  0.89282222  0.85973264  0.52193427     0.09900
S1647       S  0.85989814  0.97426946  0.96451290    -0.33500
S1648       S  0.90408664  0.81387992  0.54329829    -0.33500
H1649       H  0.91729154  0.83134072  0.57319757     0.27900
H1650       H  0.88769872  0.97441911  0.95161434     0.27900
H1651       H  0.86621562  0.95428808  0.52773731     0.18500
H1652       H  0.89973967  0.83410160  0.98011706     0.18500
C1653       C  0.87217545  0.93409802  0.71928015    -0.07300
C1654       C  0.86892349  0.97037200  0.73377747    -0.18500
C1655       C  0.86939246  0.97250726  0.76537283     0.09900
C1656       C  0.87415487  0.93768671  0.78374841    -0.07300
C1657       C  0.87656431  0.90124070  0.76927439    -0.18500
C1658       C  0.87568490  0.89903268  0.73743088     0.09900
S1659       S  0.86219831  0.02046796  0.78023357    -0.33500
S1660       S  0.87757645  0.85054976  0.72118723    -0.33500
H1661       H  0.90915864  0.85794038  0.71524763     0.27900
H1662       H  0.84437428  0.00596936  0.80060074     0.27900
H1663       H  0.86547539  0.99756445  0.72025868     0.18500
H1664       H  0.88009166  0.87428319  0.78309449     0.18500
C1665       C  0.92477809  0.02455001  0.63055702    -0.07300
C1666       C  0.95170573  0.02767933  0.65880745    -0.18500
C1667       C  0.98146219  0.04931762  0.66042392     0.09900
C1668       C  0.98533672  0.06787304  0.63310947    -0.07300
C1669       C  0.95665518  0.06878981  0.60594383    -0.18500
C1670       C  0.92676738  0.04684352  0.60416150     0.09900
S1671       S  0.51443046  0.05097450  0.69774042    -0.33500
S1672       S  0.89419818  0.04454640  0.56649255    -0.33500
H1673       H  0.88924105  0.00354681  0.56751279     0.27900
H1674       H  0.52447937  0.08935541  0.69227768     0.27900
H1675       H  0.95016182  0.01173614  0.67956944     0.18500
H1676       H  0.95888533  0.08297149  0.58474257     0.18500
C1677       C  0.73106078  0.93465767  0.61612902    -0.07300
C1678       C  0.72307727  0.93634382  0.64481730    -0.18500
C1679       C  0.69194597  0.95299264  0.64657182     0.09900
C1680       C  0.66929182  0.97132072  0.61979292    -0.07300
C1681       C  0.67578056  0.96678322  0.59060852    -0.18500
C1682       C  0.70596217  0.94781831  0.58834201     0.09900
S1683       S  0.68237423  0.94964536  0.68355724    -0.33500
S1684       S  0.71349637  0.94418469  0.55025090    -0.33500
H1685       H  0.68213900  0.96111912  0.53238292     0.27900
H1686       H  0.64676999  0.95649584  0.67133398     0.27900
H1687       H  0.74160146  0.92550479  0.66615497     0.18500
H1688       H  0.65832719  0.98045285  0.56994444     0.18500
C1689       C  0.64227554  0.21299033  0.87211535    -0.07300
C1690       C  0.66207777  0.23763497  0.89600907    -0.18500
C1691       C  0.65239148  0.27702889  0.89868438     0.09900
C1692       C  0.62231729  0.29254933  0.87687344    -0.07300
C1693       C  0.60302153  0.26815003  0.85253911    -0.18500
C1694       C  0.61294010  0.22892392  0.84967654     0.09900
S1695       S  0.67864922  0.30546223  0.93129911    -0.33500
S1696       S  0.58787382  0.20104319  0.81617691    -0.33500
H1697       H  0.61519849  0.17654415  0.81400235     0.27900
H1698       H  0.65146247  0.32879425  0.93529202     0.27900
H1699       H  0.68411679  0.22553889  0.91379065     0.18500
H1700       H  0.58096925  0.28024740  0.83476957     0.18500
C1701       C  0.63480785  0.29059861  0.62669891    -0.07300
C1702       C  0.60453433  0.27881871  0.63379634    -0.18500
C1703       C  0.59559781  0.23887361  0.63480495     0.09900
C1704       C  0.61672749  0.20922845  0.62769371    -0.07300
C1705       C  0.64726010  0.22103081  0.62113793    -0.18500
C1706       C  0.65637086  0.26085101  0.62043488     0.09900
S1707       S  0.55792106  0.22788829  0.64677025    -0.33500
S1708       S  0.69518859  0.27137606  0.61023230    -0.33500
H1709       H  0.68034712  0.30220836  0.58933351     0.27900
H1710       H  0.57311178  0.19558376  0.66591185     0.27900
H1711       H  0.58798101  0.30093259  0.63962884     0.18500
H1712       H  0.66398369  0.19902709  0.61543019     0.18500
C1713       C  0.62684443  0.43585606  0.53201504    -0.07300
C1714       C  0.62996306  0.47195985  0.51739210    -0.18500
C1715       C  0.63078921  0.47373967  0.98621571     0.09900
C1716       C  0.62687387  0.43878013  0.96808193    -0.07300
C1717       C  0.62307686  0.40261393  0.98224237    -0.18500
C1718       C  0.62340768  0.40065487  0.51397246     0.09900
S1719       S  0.63856040  0.52148890  0.97157562    -0.33500
S1720       S  0.62087650  0.35233134  0.53013752    -0.33500
H1721       H  0.64922920  0.35851801  0.55692029     0.27900
H1722       H  0.65946804  0.50684661  0.95374425     0.27900
H1723       H  0.63292569  0.49931263  0.53070538     0.18500
H1724       H  0.61977638  0.37562341  0.96844894     0.18500
C1725       C  0.63240605  0.39776072  0.78399380    -0.07300
C1726       C  0.63485162  0.43394607  0.76939396    -0.18500
C1727       C  0.63188248  0.43570543  0.73711713     0.09900
C1728       C  0.62719190  0.40054965  0.71913497    -0.07300
C1729       C  0.62591868  0.36431064  0.73404209    -0.18500
C1730       C  0.62831419  0.36254211  0.76611777     0.09900
S1731       S  0.63556134  0.48330187  0.72034882    -0.33500
S1732       S  0.62648190  0.31437901  0.78305154    -0.33500
H1733       H  0.64602337  0.32437949  0.81391901     0.27900
H1734       H  0.60608668  0.47807097  0.69451807     0.27900
H1735       H  0.63727076  0.46117662  0.78279823     0.18500
H1736       H  0.62383262  0.33706671  0.72070049     0.18500
C1737       C  0.88092350  0.70699308  0.62028938    -0.07300
C1738       C  0.84765098  0.71869090  0.62103801    -0.18500
C1739       C  0.83864869  0.75854054  0.62318203     0.09900
C1740       C  0.86303441  0.78830618  0.62391906    -0.07300
C1741       C  0.89616538  0.77650060  0.62294891    -0.18500
C1742       C  0.90511295  0.73685614  0.62064215     0.09900
S1743       S  0.79631906  0.76899823  0.62641299    -0.33500
S1744       S  0.94756734  0.72697515  0.61740194    -0.33500
H1745       H  0.93599131  0.69974082  0.59255340     0.27900
H1746       H  0.80779796  0.79769152  0.65017365     0.27900
H1747       H  0.82854829  0.69650560  0.62114576     0.18500
H1748       H  0.91545687  0.79850754  0.62303094     0.18500
C1749       C  0.52511843  0.48396388  0.77775431    -0.07300
C1750       C  0.50920155  0.52050708  0.77914592    -0.18500
C1751       C  0.48721054  0.53799421  0.75209750     0.09900
C1752       C  0.98119527  0.51850066  0.72265206    -0.07300
C1753       C  0.99738946  0.48207279  0.72128701    -0.18500
C1754       C  0.51940635  0.46464525  0.74832779     0.09900
S1755       S  0.46666638  0.58449732  0.75627622    -0.33500
S1756       S  0.04107364  0.41888983  0.74430689    -0.33500
H1757       H  0.52704441  0.41435097  0.71146331     0.27900
H1758       H  0.97624507  0.58543227  0.78947117     0.27900
H1759       H  0.51347204  0.53504971  0.80174064     0.18500
H1760       H  0.99341128  0.46758033  0.69870727     0.18500
C1761       C  0.82867440  0.46872177  0.62232447    -0.07300
C1762       C  0.80228919  0.46350957  0.59384333    -0.18500
C1763       C  0.77178235  0.44369297  0.59292495     0.09900
C1764       C  0.76704757  0.42895157  0.62112661    -0.07300
C1765       C  0.79502884  0.42989758  0.64883263    -0.18500
C1766       C  0.82562977  0.44976645  0.64979189     0.09900
S1767       S  0.73865479  0.44074602  0.55556009    -0.33500
S1768       S  0.85711937  0.45571692  0.68772164    -0.33500
H1769       H  0.88510184  0.44511245  0.67676467     0.27900
H1770       H  0.72084018  0.40907484  0.56402732     0.27900
H1771       H  0.80453540  0.47722708  0.57243130     0.18500
H1772       H  0.79163116  0.41919557  0.67078370     0.18500
C1773       C  0.57916203  0.52947084  0.62147152    -0.07300
C1774       C  0.57700314  0.54784464  0.64920920    -0.18500
C1775       C  0.54654298  0.56686413  0.65041960     0.09900
C1776       C  0.51735914  0.56757173  0.62327829    -0.07300
C1777       C  0.52106636  0.55305926  0.59475430    -0.18500
C1778       C  0.55169324  0.53477460  0.59347480     0.09900
S1779       S  0.54474862  0.58375097  0.68847355    -0.33500
S1780       S  0.55359380  0.51656639  0.55572813    -0.33500
H1781       H  0.58961584  0.51903823  0.56290229     0.27900
H1782       H  0.53011810  0.62056037  0.67701735     0.27900
H1783       H  0.59805555  0.54450186  0.67078111     0.18500
H1784       H  0.99911531  0.55358083  0.57370226     0.18500
C1785       C  0.86771061  0.71055841  0.87813268    -0.07300
C1786       C  0.84587395  0.73638238  0.85642102    -0.18500
C1787       C  0.85522308  0.77578396  0.85352716     0.09900
C1788       C  0.88711798  0.79031599  0.87293456    -0.07300
C1789       C  0.90868496  0.76462818  0.89496089    -0.18500
C1790       C  0.89913350  0.72539205  0.89810312     0.09900
S1791       S  0.82577152  0.80562111  0.82374914    -0.33500
S1792       S  0.92744942  0.69622223  0.92915653    -0.33500
H1793       H  0.90113830  0.67316568  0.93477059     0.27900
H1794       H  0.85139097  0.82882294  0.81705907     0.27900
H1795       H  0.82216650  0.72531151  0.84047327     0.18500
H1796       H  0.93230457  0.77575187  0.91101860     0.18500
C1797       C  0.73445268  0.48433122  0.72068128    -0.07300
C1798       C  0.73029708  0.47105600  0.74934294    -0.18500
C1799       C  0.74897422  0.48761353  0.77805276     0.09900
C1800       C  0.77336679  0.51726965  0.77836680    -0.07300
C1801       C  0.77772248  0.53045826  0.74976921    -0.18500
C1802       C  0.75885591  0.51407239  0.72098458     0.09900
S1803       S  0.73886942  0.47129037  0.81304608    -0.33500
S1804       S  0.76858134  0.53106332  0.68598799    -0.33500
H1805       H  0.76469522  0.49400295  0.67111157     0.27900
H1806       H  0.74124797  0.50903177  0.82684643     0.27900
H1807       H  0.71158827  0.44834914  0.74930980     0.18500
H1808       H  0.79655902  0.55307385  0.74993006     0.18500
C1809       C  0.87197491  0.60342095  0.71508658    -0.07300
C1810       C  0.87668034  0.56825094  0.73252092    -0.18500
C1811       C  0.87898483  0.56837608  0.76468750     0.09900
C1812       C  0.87648260  0.60445310  0.78006066    -0.07300
C1813       C  0.87145491  0.63963898  0.76243243    -0.18500
C1814       C  0.86952254  0.63954663  0.73033003     0.09900
S1815       S  0.88478230  0.52143763  0.78454118    -0.33500
S1816       S  0.86391589  0.68641789  0.70999637    -0.33500
H1817       H  0.84697297  0.67108790  0.67997171     0.27900
H1818       H  0.86117870  0.52896544  0.80150636     0.27900
H1819       H  0.87987819  0.54058331  0.72124957     0.18500
H1820       H  0.86867698  0.66742210  0.77372545     0.18500
C1821       C  0.88244376  0.56018688  0.96809182    -0.07300
C1822       C  0.88502149  0.59591083  0.98486453    -0.18500
C1823       C  0.88551696  0.59650997  0.51671729     0.09900
C1824       C  0.88189809  0.56075161  0.53198955    -0.07300
C1825       C  0.88054203  0.52507665  0.51551249    -0.18500
C1826       C  0.88150783  0.52425546  0.98430583     0.09900
S1827       S  0.89300701  0.64334691  0.53698198    -0.33500
S1828       S  0.88352456  0.47605936  0.96735491    -0.33500
H1829       H  0.90680048  0.48747350  0.95092982     0.27900
H1830       H  0.91591254  0.62789344  0.56480767     0.27900
H1831       H  0.88648736  0.62362088  0.97311896     0.18500
H1832       H  0.87920093  0.49730274  0.52726043     0.18500
C1833       C  0.92964197  0.47337456  0.87960682    -0.07300
C1834       C  0.95872225  0.47673693  0.90614720    -0.18500
C1835       C  0.98913286  0.45611524  0.90812172     0.09900
C1836       C  0.99150054  0.43294846  0.88233284    -0.07300
C1837       C  0.96112393  0.42474217  0.85803266    -0.18500
C1838       C  0.92985534  0.44412129  0.85681977     0.09900
S1839       S  0.52518530  0.46329601  0.94293587    -0.33500
S1840       S  0.89160078  0.43340837  0.82502303    -0.33500
H1841       H  0.90534812  0.40113713  0.81257356     0.27900
H1842       H  0.54299485  0.42875810  0.93900902     0.27900
H1843       H  0.95836028  0.49720073  0.92488550     0.18500
H1844       H  0.96259785  0.40631347  0.83848291     0.18500
C1845       C  0.74145595  0.56826659  0.88243692    -0.07300
C1846       C  0.71127691  0.57429225  0.85732014    -0.18500
C1847       C  0.68037348  0.55527906  0.85666339     0.09900
C1848       C  0.67977617  0.52905781  0.88134738    -0.07300
C1849       C  0.70867543  0.52749590  0.90821368    -0.18500
C1850       C  0.73912525  0.54721373  0.90923833     0.09900
S1851       S  0.64425249  0.56148974  0.82195109    -0.33500
S1852       S  0.77510247  0.54159679  0.94440755    -0.33500
H1853       H  0.79255307  0.57569259  0.93946838     0.27900
H1854       H  0.62100950  0.56983132  0.83925021     0.27900
H1855       H  0.71255082  0.59057478  0.83665450     0.18500
H1856       H  0.70826909  0.50879052  0.92793958     0.18500
loop_ 
_geom_bond_atom_site_label_1 
_geom_bond_atom_site_label_2 
_geom_bond_distance 
_geom_bond_site_symmetry_2 
_ccdc_geom_bond_type 
O1           C16   1.255       .  A
O1           Al9   1.871       .  S
C2           O12   1.276       .  A
C2            O3   1.270       .  A
C2          C420   1.479       .  S
O3           Al5   1.920       .  S
O4            C6   1.256       .  A
O4           Al5   1.876       .  S
Al5          O13   1.923       .  S
Al5          O15   1.918       .  S
Al5          O14   1.793       .  S
C6           O19   1.260       .  A
C6          C408   1.467       .  S
O7           C17   1.254       .  A
O7           Al9   1.927       .  S
O8           C21   1.278       .  A
O8          Al18   1.921       .  S
Al9          O22   1.916       .  S
Al9          O19   1.896       .  S
Al9          O14   1.782       .  S
O10          C17   1.250       .  A
O10         Al18   1.891       .  S
O11          C20   1.252       .  A
O11         Al18   1.895       .  S
O12         Al18   1.925       .  S
O13          C20   1.261       .  A
O14         Al18   1.781       .  S
O15          C16   1.262       .  A
C16         C453   1.482       .  S
C17         C441   1.490       .  S
C20         C393   1.486       .  S
C21          O22   1.273       .  A
C21         C429   1.487       .  S
O23          C38   1.258       .  A
O23         Al31   1.888       .  S
C24          O34   1.277       .  A
C24          O25   1.271       .  A
C24         C417   1.471       .  S
O25         Al27   1.920       .  S
O26          C28   1.254       .  A
O26         Al27   1.868       .  S
Al27         O35   1.920       .  S
Al27         O37   1.918       .  S
Al27         O36   1.785       .  S
C28          O41   1.262       .  A
C28         C360   1.476       .  S
O29          C39   1.252       .  A
O29         Al31   1.926       .  S
O30          C43   1.276       .  A
O30         Al40   1.909       .  S
Al31         O44   1.930       .  S
Al31         O41   1.894       .  S
Al31         O36   1.776       .  S
O32          C39   1.249       .  A
O32         Al40   1.901       .  S
O33          C42   1.252       .  A
O33         Al40   1.892       .  S
O34         Al40   1.924       .  S
O35          C42   1.261       .  A
O36         Al40   1.780       .  S
O37          C38   1.262       .  A
C38        C1312   1.488       .  S
C39         C369   1.488       .  S
C42         C345   1.496       .  S
C43          O44   1.277       .  A
C43         C432   1.483       .  S
O45          C60   1.276       .  A
O45         Al53   1.921       .  S
C46          O56   1.270       .  A
C46          O47   1.275       .  A
C46         C336   1.469       .  S
O47         Al49   1.917       .  S
O48          C50   1.249       .  A
O48         Al49   1.898       .  S
Al49         O57   1.894       .  S
Al49         O59   1.913       .  S
Al49         O58   1.784       .  S
C50          O63   1.255       .  A
C50         C381   1.486       .  S
O51          C61   1.260       .  A
O51         Al53   1.900       .  S
O52          C65   1.262       .  A
O52         Al62   1.917       .  S
Al53         O66   1.888       .  S
Al53         O63   1.934       .  S
Al53         O58   1.777       .  S
O54          C61   1.256       .  A
O54         Al62   1.872       .  S
O55          C64   1.262       .  A
O55         Al62   1.926       .  S
O56         Al62   1.913       .  S
O57          C64   1.253       .  A
O58         Al62   1.788       .  S
O59          C60   1.276       .  A
C60         C321   1.487       .  S
C61         C405   1.470       .  S
C64         C309   1.496       .  S
C65          O66   1.258       .  A
C65         C372   1.484       .  S
O67          C82   1.278       .  A
O67         Al75   1.927       .  S
C68          O78   1.274       .  A
C68          O69   1.278       .  A
C68         C333   1.469       .  S
O69         Al71   1.916       .  S
O70          C72   1.248       .  A
O70         Al71   1.895       .  S
Al71         O79   1.885       .  S
Al71         O81   1.907       .  S
Al71         O80   1.780       .  S
C72          O85   1.250       .  A
C72         C456   1.489       .  S
O73          C83   1.261       .  A
O73         Al75   1.892       .  S
O74          C87   1.262       .  A
O74         Al84   1.922       .  S
Al75         O88   1.870       .  S
Al75         O85   1.920       .  S
Al75         O80   1.773       .  S
O76          C83   1.254       .  A
O76         Al84   1.871       .  S
O77          C86   1.257       .  A
O77         Al84   1.916       .  S
O78         Al84   1.918       .  S
O79          C86   1.248       .  A
O80         Al84   1.787       .  S
O81          C82   1.277       .  A
C82         C324   1.478       .  S
C83         C357   1.473       .  S
C86         C300   1.477       .  S
C87          O88   1.256       .  A
C87        C1372   1.482   1_455  S
O89         C104   1.272       .  A
O89         Al97   1.917       .  S
C90         O100   1.263       .  A
C90          O91   1.271       .  A
C90         C249   1.466       .  S
O91         Al93   1.924       .  S
O92          C94   1.253       .  A
O92         Al93   1.903       .  S
Al93        O101   1.887       .  S
Al93        O103   1.907       .  S
Al93        O102   1.777       .  S
C94         O107   1.257   1_565  A
C94         C273   1.488   1_565  S
O95         C105   1.258       .  A
O95         Al97   1.887       .  S
O96         C109   1.263       .  A
O96        Al106   1.930       .  S
Al97        O110   1.900       .  S
Al97        O107   1.928   1_565  S
Al97        O102   1.776       .  S
O98         C105   1.258       .  A
O98        Al106   1.874       .  S
O99         C108   1.269       .  A
O99        Al106   1.932       .  S
O100       Al106   1.910       .  S
O101        C108   1.257       .  A
O102       Al106   1.792       .  S
O103        C104   1.270       .  A
C104        C261   1.487       .  S
C105        C240   1.474       .  S
C108        C348   1.497       .  S
C109        O110   1.260       .  A
C109        C285   1.490       .  S
O111        C126   1.278       .  A
O111       Al119   1.933       .  S
C112        O122   1.271       .  A
C112        O113   1.276       .  A
C112        C252   1.482       .  S
O113       Al115   1.917       .  S
O114        C116   1.250       .  A
O114       Al115   1.894       .  S
Al115       O123   1.893       .  S
Al115       O125   1.901       .  S
Al115       O124   1.780       .  S
C116        O129   1.252   1_565  A
C116        C216   1.488   1_565  S
O117        C127   1.264       .  A
O117       Al119   1.902       .  S
O118        C131   1.264       .  A
O118       Al128   1.932       .  S
Al119       O132   1.876       .  S
Al119       O129   1.928   1_565  S
Al119       O124   1.779       .  S
O120        C127   1.252       .  A
O120       Al128   1.859       .  S
O121        C130   1.264       .  A
O121       Al128   1.927       .  S
O122       Al128   1.923       .  S
O123        C130   1.253       .  A
O124       Al128   1.789       .  S
O125        C126   1.275       .  A
C126        C264   1.479       .  S
C127        C201   1.474       .  S
C130        C396   1.485       .  S
C131        O132   1.255       .  A
C131       C1156   1.490       .  S
O133        C148   1.258       .  A
O133       Al141   1.889       .  S
C134        O144   1.274       .  A
C134        O135   1.272       .  A
C134        C192   1.474       .  S
O135       Al137   1.932       .  S
O136        C138   1.253       .  A
O136       Al137   1.858       .  S
Al137       O145   1.933       .  S
Al137       O147   1.939       .  S
Al137       O146   1.784       .  S
C138        O151   1.264       .  A
C138        C204   1.472       .  S
O139        C149   1.257   1_565  A
O139       Al141   1.933   1_565  S
O140        C153   1.269       .  A
O140       Al150   1.900       .  S
Al141       O154   1.936       .  S
Al141       O151   1.909       .  S
Al141       O146   1.778       .  S
O142        C149   1.253       .  A
O142       Al150   1.917       .  S
O143        C152   1.255       .  A
O143       Al150   1.890       .  S
O144       Al150   1.917       .  S
O145        C152   1.266       .  A
O146       Al150   1.781       .  S
O147        C148   1.267       .  A
C148       C1204   1.495   1_455  S
C149        C288   1.487   1_545  S
C152        C312   1.496       .  S
C153        O154   1.274       .  A
C153        C177   1.469       .  S
O155        C170   1.261       .  A
O155       Al163   1.896       .  S
C156        O166   1.273       .  A
C156        O157   1.269       .  A
C156        C189   1.483       .  S
O157       Al159   1.924       .  S
O158        C160   1.255       .  A
O158       Al159   1.856       .  S
Al159       O167   1.911       .  S
Al159       O169   1.917       .  S
Al159       O168   1.792       .  S
C160        O173   1.260       .  A
C160        C237   1.471       .  S
O161        C171   1.258       .  A
O161       Al163   1.933       .  S
O162        C175   1.272       .  A
O162       Al172   1.910       .  S
Al163       O176   1.921       .  S
Al163       O173   1.897       .  S
Al163       O168   1.781       .  S
O164        C171   1.253       .  A
O164       Al172   1.904       .  S
O165        C174   1.254       .  A
O165       Al172   1.897       .  S
O166       Al172   1.916       .  S
O167        C174   1.259       .  A
O168       Al172   1.783       .  S
O169        C170   1.261       .  A
C170        C213   1.490       .  S
C171        C225   1.493   1_545  S
C174        C297   1.478       .  S
C175        O176   1.272       .  A
C175        C180   1.486       .  S
C177        C178   1.403       .  A
C177        C182   1.402       .  A
C178        C179   1.404       .  A
C178        H187   1.082       .  S
C179        C180   1.414       .  A
C179        S183   1.801       .  S
C180        C181   1.406       .  A
C181        C182   1.395       .  A
C181        H188   1.081       .  S
C182        S184   1.798       .  S
S183        H186   1.408       .  S
S184        H185   1.405       .  S
C189        C190   1.402       .  A
C189        C194   1.416       .  A
C190        C655   1.401       .  A
C190        H199   1.082       .  S
C191        C192   1.416       .  A
C191        C654   1.401   1_554  A
C191        S195   1.808       .  S
C192        C193   1.403       .  A
C193        C658   1.403   1_554  A
C193        H200   1.084       .  S
C194        C657   1.403       .  A
C194        S196   1.805       .  S
S195        H198   1.398       .  S
S196        H197   1.407       .  S
C201        C202   1.400   1_565  A
C201        C206   1.420       .  A
C202       C1595   1.391       .  A
C202        H211   1.084       .  S
C203        C204   1.418   1_655  A
C203       C1594   1.391   1_554  A
C203        S207   1.804       .  S
C204        C205   1.399   1_545  A
C205       C1598   1.394   1_554  A
C205        H212   1.084       .  S
C206       C1597   1.394       .  A
C206        S208   1.804       .  S
S207        H210   1.403       .  S
S208        H209   1.407       .  S
C213        C214   1.411       .  A
C213        C218   1.406       .  A
C214        C215   1.415       .  A
C214        H223   1.082       .  S
C215        C216   1.414       .  A
C215        S219   1.803       .  S
C216        C217   1.403       .  A
C217        C218   1.394       .  A
C217        H224   1.081       .  S
C218        S220   1.792       .  S
S219        H222   1.407       .  S
S220        H221   1.408       .  S
C225        C226   1.407       .  A
C225        C230   1.417       .  A
C226        C227   1.402       .  A
C226        H235   1.084       .  S
C227        C228   1.413       .  A
C227        S231   1.805   1_455  S
C228       C1059   1.490   1_455  S
C228        C229   1.409       .  A
C229        C230   1.411       .  A
C229        H236   1.083       .  S
C230        S232   1.803       .  S
S231       H1162   1.407       .  S
S232        H233   1.403       .  S
H234       S1159   1.407       .  S
C237        C238   1.403       .  A
C237        C242   1.413   1_545  A
C238        C703   1.389       .  A
C238        H247   1.085       .  S
C239        C240   1.416   1_545  A
C239        C702   1.389   1_554  A
C239        S243   1.802       .  S
C240        C241   1.407   1_554  A
C241        C706   1.393       .  A
C241        H248   1.084       .  S
C242        C705   1.394       .  A
C242        S244   1.803       .  S
S243        H246   1.408       .  S
S244        H245   1.408       .  S
C249        C250   1.400       .  A
C249        C254   1.409       .  A
C250        C715   1.398   1_554  A
C250        H259   1.081       .  S
C251        C252   1.413       .  A
C251        C714   1.398       .  A
C251        S255   1.794       .  S
C252        C253   1.408       .  A
C253        C718   1.401       .  A
C253        H260   1.082       .  S
C254        C717   1.401   1_554  A
C254        S256   1.803       .  S
S255        H258   1.408       .  S
S256        H257   1.406       .  S
C261        C262   1.407       .  A
C261        C266   1.416       .  A
C262        C263   1.396       .  A
C262        H271   1.084       .  S
C263        C264   1.412       .  A
C263        S267   1.804   1_565  S
C264        C265   1.405       .  A
C265        C266   1.402       .  A
C265        H272   1.084       .  S
C266        S268   1.800       .  S
S267        H270   1.403       .  S
S268        H269   1.407       .  S
C273        C274   1.404       .  A
C273        C278   1.414       .  A
C274        C275   1.401       .  A
C274        H283   1.085       .  S
C275        C276   1.414       .  A
C275       S1207   1.796       .  S
C276       C1076   1.495       .  S
C276        C277   1.409       .  A
C277        C278   1.409       .  A
C277        H284   1.083       .  S
C278        S280   1.802       .  S
S279       C1203   1.796   1_455  S
S279        H282   1.405       .  S
S280        H281   1.405       .  S
C285        C286   1.402       .  A
C285        C290   1.419       .  A
C286        C287   1.404       .  A
C286        H295   1.084       .  S
C287        C288   1.412       .  A
C287        S291   1.795       .  S
C288        C289   1.401       .  A
C289        C290   1.410       .  A
C289        H296   1.082       .  S
C290        S292   1.805       .  S
S291        H294   1.406       .  S
S292        H293   1.407       .  S
C297        C298   1.403       .  A
C297        C302   1.414       .  A
C298        C299   1.402       .  A
C298        H307   1.083       .  S
C299        C300   1.416       .  A
C299        S303   1.804       .  S
C300        C301   1.402       .  A
C301        C302   1.400       .  A
C301        H308   1.083       .  S
C302        S304   1.802       .  S
S303        H306   1.407       .  S
S304        H305   1.407       .  S
C309        C310   1.415       .  A
C309        C314   1.410       .  A
C310        C311   1.405       .  A
C310        H319   1.084       .  S
C311        C312   1.410       .  A
C311        S315   1.802       .  S
C312        C313   1.414       .  A
C313        C314   1.401       .  A
C313        H320   1.083       .  S
C314        S316   1.801       .  S
S315        H318   1.408       .  S
S316        H317   1.406       .  S
C321        C322   1.407       .  A
C321        C326   1.417       .  A
C322        C787   1.394   1_554  A
C322        H331   1.084       .  S
C323        C324   1.412       .  A
C323        C786   1.394       .  A
C323        S327   1.805       .  S
C324        C325   1.405       .  A
C325        C790   1.404       .  A
C325        H332   1.085       .  S
C326        C789   1.404   1_554  A
C326        S328   1.801       .  S
S327        H330   1.407       .  S
S328        H329   1.407       .  S
C333        C334   1.402       .  A
C333        C338   1.413       .  A
C334        C335   1.400       .  A
C334        H343   1.084       .  S
C335        C336   1.412       .  A
C335        S339   1.799       .  S
C336        C337   1.401       .  A
C337        C338   1.397       .  A
C337        H344   1.084       .  S
C338        S340   1.805       .  S
S339        H342   1.405       .  S
S340        H341   1.407       .  S
C345        C346   1.416       .  A
C345        C350   1.410       .  A
C346        C347   1.405       .  A
C346        H355   1.084       .  S
C347        C348   1.410       .  A
C347        S351   1.800       .  S
C348        C349   1.415       .  A
C349        C350   1.399       .  A
C349        H356   1.083       .  S
C350        S352   1.802       .  S
S351        H354   1.408       .  S
S352        H353   1.407       .  S
C357        C358   1.401       .  A
C357        C362   1.415       .  A
C358        C359   1.397   1_455  A
C358        H367   1.082       .  S
C359       C1288   1.417       .  A
C359        S363   1.811       .  S
C360        C361   1.403       .  A
C360       C1287   1.417       .  A
C361       C1290   1.397       .  A
C361        H368   1.082       .  S
C362       C1289   1.397   1_455  A
C362       S1292   1.811       .  S
S363       H1294   1.406       .  S
S364       C1290   1.811       .  S
S364       H1293   1.406       .  S
H365       S1292   1.406       .  S
H366       S1291   1.406       .  S
C369        C370   1.407       .  A
C369        C374   1.414       .  A
C370        C371   1.403       .  A
C370        H379   1.084       .  S
C371        C372   1.411       .  A
C371        S375   1.804       .  S
C372        C373   1.408       .  A
C373        C374   1.406       .  A
C373        H380   1.084       .  S
C374        S376   1.801       .  S
S375        H378   1.407       .  S
S376        H377   1.406       .  S
C381        C382   1.401       .  A
C381        C386   1.415       .  A
C382        C383   1.407       .  A
C382        H391   1.085       .  S
C383        C384   1.420       .  A
C383        S387   1.801       .  S
C384        C966   1.488   1_455  S
C384        C385   1.403       .  A
C385        C386   1.403       .  A
C385       H1320   1.085   1_455  S
C386        S388   1.804       .  S
S387        H390   1.406       .  S
S388        H389   1.407       .  S
H392       C1313   1.085       .  S
C393        C394   1.403       .  A
C393        C398   1.417       .  A
C394        C395   1.404       .  A
C394        H403   1.082       .  S
C395        C396   1.419       .  A
C395        S399   1.804       .  S
C396        C397   1.402       .  A
C397        C398   1.403       .  A
C397        H404   1.082       .  S
C398        S400   1.803       .  S
S399        H402   1.406       .  S
S400        H401   1.407       .  S
C405        C406   1.404       .  A
C405        C410   1.414       .  A
C406        C407   1.394       .  A
C406        H415   1.083       .  S
C407        C408   1.411       .  A
C407        S411   1.804       .  S
C408        C409   1.403       .  A
C409        C410   1.396       .  A
C409        H416   1.084       .  S
C410        S412   1.804       .  S
S411        H414   1.406       .  S
S412        H413   1.403       .  S
C417        C418   1.400       .  A
C417        C422   1.412       .  A
C418        C419   1.400       .  A
C418        H427   1.085       .  S
C419        C420   1.414       .  A
C419        S423   1.796       .  S
C420        C421   1.405       .  A
C421        C422   1.401       .  A
C421        H428   1.085       .  S
C422        S424   1.804       .  S
S423        H426   1.403       .  S
S424        H425   1.406       .  S
C429        C430   1.406       .  A
C429        C434   1.419       .  A
C430        C895   1.404       .  A
C430        H439   1.083       .  S
C431        C432   1.416       .  A
C431        C894   1.404   1_554  A
C431        S435   1.802       .  S
C432        C433   1.402       .  A
C433        C898   1.397   1_554  A
C433        H440   1.084       .  S
C434        C897   1.397       .  A
C434        S436   1.805       .  S
S435        H438   1.408       .  S
S436        H437   1.408       .  S
C441        C442   1.406       .  A
C441        C446   1.414       .  A
C442        C443   1.396       .  A
C442        H451   1.083       .  S
C443        C444   1.410       .  A
C443       S1375   1.806       .  S
C444       C1015   1.482       .  S
C444        C445   1.408       .  A
C445        C446   1.413       .  A
C445        H452   1.082       .  S
C446        S448   1.803       .  S
S447       C1371   1.806   1_455  S
S447        H450   1.408       .  S
S448        H449   1.407       .  S
C453        C454   1.407       .  A
C453        C458   1.412       .  A
C454        C455   1.407       .  A
C454        H463   1.083       .  S
C455        C456   1.415       .  A
C455        S459   1.799       .  S
C456        C457   1.406       .  A
C457        C458   1.398       .  A
C457        H464   1.084       .  S
C458        S460   1.806       .  S
S459        H462   1.407       .  S
S460        H461   1.408       .  S
O465        C480   1.255       .  A
O465       Al473   1.871       .  S
C466        O476   1.276       .  A
C466        O467   1.270       .  A
C466        C884   1.479       .  S
O467       Al469   1.920       .  S
O468        C470   1.256       .  A
O468       Al469   1.876       .  S
Al469       O477   1.923       .  S
Al469       O479   1.918       .  S
Al469       O478   1.793       .  S
C470        O483   1.260       .  A
C470        C872   1.467       .  S
O471        C481   1.254       .  A
O471       Al473   1.928       .  S
O472        C485   1.278       .  A
O472       Al482   1.921       .  S
Al473       O486   1.916       .  S
Al473       O483   1.896       .  S
Al473       O478   1.782       .  S
O474        C481   1.250       .  A
O474       Al482   1.891       .  S
O475        C484   1.252       .  A
O475       Al482   1.895       .  S
O476       Al482   1.925       .  S
O477        C484   1.261       .  A
O478       Al482   1.781       .  S
O479        C480   1.262       .  A
C480        C917   1.482       .  S
C481        C905   1.491       .  S
C484        C857   1.486       .  S
C485        O486   1.273       .  A
C485        C893   1.487       .  S
O487        C502   1.258       .  A
O487       Al495   1.888       .  S
C488        O498   1.277       .  A
C488        O489   1.271       .  A
C488        C881   1.471       .  S
O489       Al491   1.920       .  S
O490        C492   1.254       .  A
O490       Al491   1.868       .  S
Al491       O499   1.920       .  S
Al491       O501   1.918       .  S
Al491       O500   1.785       .  S
C492        O505   1.262       .  A
C492        C824   1.476       .  S
O493        C503   1.252       .  A
O493       Al495   1.926       .  S
O494        C507   1.276       .  A
O494       Al504   1.909       .  S
Al495       O508   1.931       .  S
Al495       O505   1.894       .  S
Al495       O500   1.776       .  S
O496        C503   1.249       .  A
O496       Al504   1.900       .  S
O497        C506   1.252       .  A
O497       Al504   1.892       .  S
O498       Al504   1.924       .  S
O499        C506   1.261       .  A
O500       Al504   1.780       .  S
O501        C502   1.262       .  A
C502       C1776   1.487       .  S
C503        C833   1.488       .  S
C506        C809   1.496       .  S
C507        O508   1.277       .  A
C507        C896   1.483       .  S
O509        C524   1.276       .  A
O509       Al517   1.921       .  S
C510        O520   1.270       .  A
C510        O511   1.275       .  A
C510        C800   1.469       .  S
O511       Al513   1.917       .  S
O512        C514   1.249       .  A
O512       Al513   1.898       .  S
Al513       O521   1.894       .  S
Al513       O523   1.913       .  S
Al513       O522   1.784       .  S
C514        O527   1.255       .  A
C514        C845   1.486       .  S
O515        C525   1.260       .  A
O515       Al517   1.900       .  S
O516        C529   1.262       .  A
O516       Al526   1.917       .  S
Al517       O530   1.888       .  S
Al517       O527   1.934       .  S
Al517       O522   1.777       .  S
O518        C525   1.256       .  A
O518       Al526   1.872       .  S
O519        C528   1.262       .  A
O519       Al526   1.926       .  S
O520       Al526   1.913       .  S
O521        C528   1.253       .  A
O522       Al526   1.788       .  S
O523        C524   1.276       .  A
C524        C785   1.487       .  S
C525        C869   1.470       .  S
C528        C773   1.496       .  S
C529        O530   1.258       .  A
C529        C836   1.484       .  S
O531        C546   1.278       .  A
O531       Al539   1.927       .  S
C532        O542   1.274       .  A
C532        O533   1.278       .  A
C532        C797   1.469       .  S
O533       Al535   1.916       .  S
O534        C536   1.248       .  A
O534       Al535   1.895       .  S
Al535       O543   1.886       .  S
Al535       O545   1.907       .  S
Al535       O544   1.780       .  S
C536        O549   1.250       .  A
C536        C920   1.489       .  S
O537        C547   1.261       .  A
O537       Al539   1.892       .  S
O538        C551   1.262       .  A
O538       Al548   1.922       .  S
Al539       O552   1.870       .  S
Al539       O549   1.920       .  S
Al539       O544   1.774       .  S
O540        C547   1.254       .  A
O540       Al548   1.870       .  S
O541        C550   1.257       .  A
O541       Al548   1.916       .  S
O542       Al548   1.918       .  S
O543        C550   1.248       .  A
O544       Al548   1.787       .  S
O545        C546   1.277       .  A
C546        C788   1.478       .  S
C547        C821   1.473       .  S
C550        C764   1.478       .  S
C551        O552   1.256       .  A
C551       C1836   1.482   1_455  S
O553        C568   1.272       .  A
O553       Al561   1.917       .  S
C554        O564   1.263       .  A
C554        O555   1.271       .  A
C554        C713   1.466       .  S
O555       Al557   1.925       .  S
O556        C558   1.253       .  A
O556       Al557   1.902       .  S
Al557       O565   1.887       .  S
Al557       O567   1.907       .  S
Al557       O566   1.777       .  S
C558        O571   1.257   1_565  A
C558        C737   1.488   1_565  S
O559        C569   1.258       .  A
O559       Al561   1.888       .  S
O560        C573   1.263       .  A
O560       Al570   1.930       .  S
Al561       O574   1.899       .  S
Al561       O571   1.928   1_565  S
Al561       O566   1.776       .  S
O562        C569   1.258       .  A
O562       Al570   1.874       .  S
O563        C572   1.269       .  A
O563       Al570   1.932       .  S
O564       Al570   1.910       .  S
O565        C572   1.257       .  A
O566       Al570   1.792       .  S
O567        C568   1.270       .  A
C568        C725   1.488       .  S
C569        C704   1.475       .  S
C572        C812   1.497       .  S
C573        O574   1.260       .  A
C573        C749   1.490       .  S
O575        C590   1.278       .  A
O575       Al583   1.933       .  S
C576        O586   1.271       .  A
C576        O577   1.276       .  A
C576        C716   1.482       .  S
O577       Al579   1.918       .  S
O578        C580   1.250       .  A
O578       Al579   1.894       .  S
Al579       O587   1.893       .  S
Al579       O589   1.902       .  S
Al579       O588   1.780       .  S
C580        O593   1.252   1_565  A
C580        C680   1.489   1_565  S
O581        C591   1.264       .  A
O581       Al583   1.902       .  S
O582        C595   1.264       .  A
O582       Al592   1.932       .  S
Al583       O596   1.876       .  S
Al583       O593   1.928   1_565  S
Al583       O588   1.779       .  S
O584        C591   1.252       .  A
O584       Al592   1.858       .  S
O585        C594   1.264       .  A
O585       Al592   1.928       .  S
O586       Al592   1.922       .  S
O587        C594   1.253       .  A
O588       Al592   1.789       .  S
O589        C590   1.275       .  A
C590        C728   1.479       .  S
C591        C665   1.474       .  S
C594        C860   1.485       .  S
C595        O596   1.255       .  A
C595       C1620   1.490       .  S
O597        C612   1.258       .  A
O597       Al605   1.889       .  S
C598        O608   1.274       .  A
C598        O599   1.272       .  A
C598        C656   1.474       .  S
O599       Al601   1.931       .  S
O600        C602   1.253       .  A
O600       Al601   1.858       .  S
Al601       O609   1.933       .  S
Al601       O611   1.939       .  S
Al601       O610   1.784       .  S
C602        O615   1.263       .  A
C602        C668   1.472       .  S
O603        C613   1.257   1_565  A
O603       Al605   1.933   1_565  S
O604        C617   1.269       .  A
O604       Al614   1.900       .  S
Al605       O618   1.937       .  S
Al605       O615   1.909       .  S
Al605       O610   1.778       .  S
O606        C613   1.253       .  A
O606       Al614   1.917       .  S
O607        C616   1.255       .  A
O607       Al614   1.890       .  S
O608       Al614   1.917       .  S
O609        C616   1.266       .  A
O610       Al614   1.782       .  S
O611        C612   1.267       .  A
C612       C1668   1.495   1_455  S
C613        C752   1.487   1_545  S
C616        C776   1.496       .  S
C617        O618   1.274       .  A
C617        C641   1.470       .  S
O619        C634   1.261       .  A
O619       Al627   1.896       .  S
C620        O630   1.273       .  A
C620        O621   1.269       .  A
C620        C653   1.483       .  S
O621       Al623   1.924       .  S
O622        C624   1.255       .  A
O622       Al623   1.856       .  S
Al623       O631   1.911       .  S
Al623       O633   1.917       .  S
Al623       O632   1.792       .  S
C624        O637   1.259       .  A
C624        C701   1.470       .  S
O625        C635   1.258       .  A
O625       Al627   1.933       .  S
O626        C639   1.272       .  A
O626       Al636   1.910       .  S
Al627       O640   1.921       .  S
Al627       O637   1.897       .  S
Al627       O632   1.781       .  S
O628        C635   1.253       .  A
O628       Al636   1.904       .  S
O629        C638   1.255       .  A
O629       Al636   1.898       .  S
O630       Al636   1.917       .  S
O631        C638   1.259       .  A
O632       Al636   1.783       .  S
O633        C634   1.261       .  A
C634        C677   1.490       .  S
C635        C689   1.493   1_545  S
C638        C761   1.478       .  S
C639        O640   1.272       .  A
C639        C644   1.486       .  S
C641        C642   1.403       .  A
C641        C646   1.402       .  A
C642        C643   1.404       .  A
C642        H651   1.082       .  S
C643        C644   1.414       .  A
C643        S647   1.801       .  S
C644        C645   1.406       .  A
C645        C646   1.396       .  A
C645        H652   1.081       .  S
C646        S648   1.798       .  S
S647        H650   1.408       .  S
S648        H649   1.405       .  S
C653        C654   1.402       .  A
C653        C658   1.416       .  A
C654        H663   1.082       .  S
C655        C656   1.416       .  A
C655        S659   1.808       .  S
C656        C657   1.403       .  A
C657        H664   1.084       .  S
C658        S660   1.805       .  S
S659        H662   1.398       .  S
S660        H661   1.407       .  S
C665        C666   1.400   1_565  A
C665        C670   1.420       .  A
C666       C1131   1.391   1_556  A
C666        H675   1.084       .  S
C667       C1130   1.391       .  A
C667        C668   1.418   1_655  A
C667        S671   1.803       .  S
C668        C669   1.400   1_545  A
C669       C1134   1.394       .  A
C669        H676   1.084       .  S
C670       C1133   1.394   1_556  A
C670        S672   1.804       .  S
S671        H674   1.403       .  S
S672        H673   1.407       .  S
C677        C678   1.411       .  A
C677        C682   1.406       .  A
C678        C679   1.415       .  A
C678        H687   1.081       .  S
C679        C680   1.414       .  A
C679        S683   1.804       .  S
C680        C681   1.403       .  A
C681        C682   1.394       .  A
C681        H688   1.080       .  S
C682        S684   1.792       .  S
S683        H686   1.407       .  S
S684        H685   1.408       .  S
C689        C690   1.407       .  A
C689        C694   1.417       .  A
C690        C691   1.402       .  A
C690        H699   1.084       .  S
C691        C692   1.413       .  A
C691        S695   1.805   1_455  S
C692       C1523   1.490   1_455  S
C692        C693   1.409       .  A
C693        C694   1.411       .  A
C693        H700   1.083       .  S
C694        S696   1.803       .  S
S695       H1626   1.407       .  S
S696        H697   1.403       .  S
H698       S1623   1.407       .  S
C701        C702   1.403       .  A
C701        C706   1.413   1_545  A
C702        H711   1.085   1_556  S
C703        C704   1.415   1_545  A
C703        S707   1.802       .  S
C704        C705   1.407       .  A
C705        H712   1.084       .  S
C706        S708   1.803       .  S
S707        H710   1.409       .  S
S708        H709   1.408       .  S
C713        C714   1.400       .  A
C713        C718   1.409       .  A
C714        H723   1.081       .  S
C715        C716   1.414       .  A
C715        S719   1.794       .  S
C716        C717   1.408       .  A
C717        H724   1.082       .  S
C718        S720   1.803       .  S
S719        H722   1.408       .  S
S720        H721   1.405       .  S
C725        C726   1.407       .  A
C725        C730   1.417       .  A
C726        C727   1.396       .  A
C726        H735   1.084       .  S
C727        C728   1.412       .  A
C727        S731   1.804   1_565  S
C728        C729   1.405       .  A
C729        C730   1.402       .  A
C729        H736   1.084       .  S
C730        S732   1.800       .  S
S731        H734   1.403       .  S
S732        H733   1.407       .  S
C737        C738   1.404       .  A
C737        C742   1.415       .  A
C738        C739   1.401       .  A
C738        H747   1.085       .  S
C739        C740   1.413       .  A
C739       S1671   1.796       .  S
C740       C1540   1.495       .  S
C740        C741   1.409       .  A
C741        C742   1.409       .  A
C741        H748   1.082       .  S
C742        S744   1.802       .  S
S743       C1667   1.796   1_455  S
S743        H746   1.405       .  S
S744        H745   1.405       .  S
C749        C750   1.402       .  A
C749        C754   1.419       .  A
C750        C751   1.405       .  A
C750        H759   1.084       .  S
C751        C752   1.412       .  A
C751        S755   1.795       .  S
C752        C753   1.401       .  A
C753        C754   1.410       .  A
C753        H760   1.082       .  S
C754        S756   1.805       .  S
S755        H758   1.406       .  S
S756        H757   1.407       .  S
C761        C762   1.403       .  A
C761        C766   1.414       .  A
C762        C763   1.402       .  A
C762        H771   1.083       .  S
C763        C764   1.416       .  A
C763        S767   1.804       .  S
C764        C765   1.402       .  A
C765        C766   1.401       .  A
C765        H772   1.083       .  S
C766        S768   1.802       .  S
S767        H770   1.407       .  S
S768        H769   1.407       .  S
C773        C774   1.415       .  A
C773        C778   1.410       .  A
C774        C775   1.405       .  A
C774        H783   1.084       .  S
C775        C776   1.410       .  A
C775        S779   1.802       .  S
C776        C777   1.414       .  A
C777        C778   1.401       .  A
C777        H784   1.083       .  S
C778        S780   1.801       .  S
S779        H782   1.408       .  S
S780        H781   1.406       .  S
C785        C786   1.407       .  A
C785        C790   1.417       .  A
C786        H795   1.084       .  S
C787        C788   1.412       .  A
C787        S791   1.805       .  S
C788        C789   1.405       .  A
C789        H796   1.084       .  S
C790        S792   1.801       .  S
S791        H794   1.407       .  S
S792        H793   1.407       .  S
C797        C798   1.403       .  A
C797        C802   1.413       .  A
C798        C799   1.401       .  A
C798        H807   1.084       .  S
C799        C800   1.412       .  A
C799        S803   1.799       .  S
C800        C801   1.401       .  A
C801        C802   1.397       .  A
C801        H808   1.084       .  S
C802        S804   1.805       .  S
S803        H806   1.405       .  S
S804        H805   1.407       .  S
C809        C810   1.416       .  A
C809        C814   1.410       .  A
C810        C811   1.405       .  A
C810        H819   1.084       .  S
C811        C812   1.410       .  A
C811        S815   1.800       .  S
C812        C813   1.415       .  A
C813        C814   1.399       .  A
C813        H820   1.083       .  S
C814        S816   1.802       .  S
S815        H818   1.408       .  S
S816        H817   1.407       .  S
C821        C822   1.401       .  A
C821        C826   1.415       .  A
C822        C823   1.397   1_455  A
C822        H831   1.082       .  S
C823       C1752   1.418       .  A
C823        S827   1.811       .  S
C824       C1751   1.418       .  A
C824        C825   1.403       .  A
C825       C1754   1.397       .  A
C825        H832   1.082       .  S
C826       C1753   1.397   1_455  A
C826       S1756   1.811       .  S
S827       H1758   1.406       .  S
S828       C1754   1.811       .  S
S828       H1757   1.406       .  S
H829       S1756   1.406       .  S
H830       S1755   1.406       .  S
C833        C834   1.407       .  A
C833        C838   1.414       .  A
C834        C835   1.403       .  A
C834        H843   1.084       .  S
C835        C836   1.411       .  A
C835        S839   1.804       .  S
C836        C837   1.408       .  A
C837        C838   1.406       .  A
C837        H844   1.084       .  S
C838        S840   1.801       .  S
S839        H842   1.407       .  S
S840        H841   1.406       .  S
C845        C846   1.401       .  A
C845        C850   1.415       .  A
C846        C847   1.407       .  A
C846        H855   1.085       .  S
C847        C848   1.420       .  A
C847        S851   1.801       .  S
C848       C1430   1.488   1_455  S
C848        C849   1.403       .  A
C849        C850   1.402       .  A
C849       H1784   1.085   1_455  S
C850        S852   1.804       .  S
S851        H854   1.406       .  S
S852        H853   1.407       .  S
H856       C1777   1.085       .  S
C857        C858   1.403       .  A
C857        C862   1.417       .  A
C858        C859   1.404       .  A
C858        H867   1.082       .  S
C859        C860   1.419       .  A
C859        S863   1.804       .  S
C860        C861   1.403       .  A
C861        C862   1.403       .  A
C861        H868   1.082       .  S
C862        S864   1.803       .  S
S863        H866   1.406       .  S
S864        H865   1.407       .  S
C869        C870   1.404       .  A
C869        C874   1.414       .  A
C870        C871   1.394       .  A
C870        H879   1.083       .  S
C871        C872   1.411       .  A
C871        S875   1.804       .  S
C872        C873   1.403       .  A
C873        C874   1.396       .  A
C873        H880   1.084       .  S
C874        S876   1.804       .  S
S875        H878   1.406       .  S
S876        H877   1.403       .  S
C881        C882   1.400       .  A
C881        C886   1.412       .  A
C882        C883   1.400       .  A
C882        H891   1.085       .  S
C883        C884   1.414       .  A
C883        S887   1.796       .  S
C884        C885   1.405       .  A
C885        C886   1.401       .  A
C885        H892   1.085       .  S
C886        S888   1.804       .  S
S887        H890   1.403       .  S
S888        H889   1.406       .  S
C893        C894   1.406       .  A
C893        C898   1.419       .  A
C894        H903   1.083       .  S
C895        C896   1.416       .  A
C895        S899   1.802       .  S
C896        C897   1.402       .  A
C897        H904   1.084       .  S
C898        S900   1.805       .  S
S899        H902   1.408       .  S
S900        H901   1.408       .  S
C905        C906   1.406       .  A
C905        C910   1.414       .  A
C906        C907   1.396       .  A
C906        H915   1.083       .  S
C907        C908   1.410       .  A
C907       S1839   1.806       .  S
C908       C1479   1.482       .  S
C908        C909   1.408       .  A
C909        C910   1.413       .  A
C909        H916   1.082       .  S
C910        S912   1.803       .  S
S911       C1835   1.806   1_455  S
S911        H914   1.408       .  S
S912        H913   1.407       .  S
C917        C918   1.407       .  A
C917        C922   1.412       .  A
C918        C919   1.407       .  A
C918        H927   1.083       .  S
C919        C920   1.415       .  A
C919        S923   1.799       .  S
C920        C921   1.406       .  A
C921        C922   1.398       .  A
C921        H928   1.084       .  S
C922        S924   1.806       .  S
S923        H926   1.407       .  S
S924        H925   1.408       .  S
O929        C944   1.255       .  A
O929       Al937   1.871       .  S
C930        O940   1.276       .  A
C930        O931   1.270       .  A
C930       C1348   1.479       .  S
O931       Al933   1.920       .  S
O932        C934   1.256       .  A
O932       Al933   1.876       .  S
Al933       O941   1.923       .  S
Al933       O943   1.918       .  S
Al933       O942   1.793       .  S
C934        O947   1.260       .  A
C934       C1336   1.467       .  S
O935        C945   1.254       .  A
O935       Al937   1.927       .  S
O936        C949   1.278       .  A
O936       Al946   1.921       .  S
Al937       O950   1.916       .  S
Al937       O947   1.896       .  S
Al937       O942   1.782       .  S
O938        C945   1.250       .  A
O938       Al946   1.891       .  S
O939        C948   1.252       .  A
O939       Al946   1.895       .  S
O940       Al946   1.925       .  S
O941        C948   1.261       .  A
O942       Al946   1.781       .  S
O943        C944   1.262       .  A
C944       C1381   1.482       .  S
C945       C1369   1.490       .  S
C948       C1321   1.486       .  S
C949        O950   1.273       .  A
C949       C1357   1.487       .  S
O951        C966   1.258       .  A
O951       Al959   1.888       .  S
C952        O962   1.277       .  A
C952        O953   1.271       .  A
C952       C1345   1.471       .  S
O953       Al955   1.920       .  S
O954        C956   1.254       .  A
O954       Al955   1.868       .  S
Al955       O963   1.920       .  S
Al955       O965   1.918       .  S
Al955       O964   1.785       .  S
C956        O969   1.262       .  A
C956       C1288   1.476       .  S
O957        C967   1.252       .  A
O957       Al959   1.926       .  S
O958        C971   1.276       .  A
O958       Al968   1.909       .  S
Al959       O972   1.930       .  S
Al959       O969   1.894       .  S
Al959       O964   1.776       .  S
O960        C967   1.249       .  A
O960       Al968   1.901       .  S
O961        C970   1.252       .  A
O961       Al968   1.892       .  S
O962       Al968   1.924       .  S
O963        C970   1.261       .  A
O964       Al968   1.780       .  S
O965        C966   1.262       .  A
C967       C1297   1.488       .  S
C970       C1273   1.496       .  S
C971        O972   1.277       .  A
C971       C1360   1.483       .  S
O973        C988   1.276       .  A
O973       Al981   1.921       .  S
C974        O984   1.270       .  A
C974        O975   1.275       .  A
C974       C1264   1.469       .  S
O975       Al977   1.917       .  S
O976        C978   1.249       .  A
O976       Al977   1.898       .  S
Al977       O985   1.894       .  S
Al977       O987   1.913       .  S
Al977       O986   1.784       .  S
C978        O991   1.255       .  A
C978       C1309   1.486       .  S
O979        C989   1.260       .  A
O979       Al981   1.900       .  S
O980        C993   1.262       .  A
O980       Al990   1.917       .  S
Al981       O994   1.888       .  S
Al981       O991   1.934       .  S
Al981       O986   1.777       .  S
O982        C989   1.256       .  A
O982       Al990   1.872       .  S
O983        C992   1.262       .  A
O983       Al990   1.926       .  S
O984       Al990   1.913       .  S
O985        C992   1.253       .  A
O986       Al990   1.788       .  S
O987        C988   1.276       .  A
C988       C1249   1.487       .  S
C989       C1333   1.470       .  S
C992       C1237   1.496       .  S
C993        O994   1.258       .  A
C993       C1300   1.484       .  S
O995       C1010   1.278       .  A
O995      Al1003   1.927       .  S
C996       O1006   1.274       .  A
C996        O997   1.278       .  A
C996       C1261   1.469       .  S
O997       Al999   1.916       .  S
O998       C1000   1.248       .  A
O998       Al999   1.895       .  S
Al999      O1007   1.885       .  S
Al999      O1009   1.907       .  S
Al999      O1008   1.780       .  S
C1000      O1013   1.250       .  A
C1000      C1384   1.489       .  S
O1001      C1011   1.261       .  A
O1001     Al1003   1.892       .  S
O1002      C1015   1.262       .  A
O1002     Al1012   1.922       .  S
Al1003     O1016   1.870       .  S
Al1003     O1013   1.920       .  S
Al1003     O1008   1.773       .  S
O1004      C1011   1.254       .  A
O1004     Al1012   1.871       .  S
O1005      C1014   1.257       .  A
O1005     Al1012   1.916       .  S
O1006     Al1012   1.918       .  S
O1007      C1014   1.248       .  A
O1008     Al1012   1.787       .  S
O1009      C1010   1.277       .  A
C1010      C1252   1.478       .  S
C1011      C1285   1.473       .  S
C1014      C1228   1.477       .  S
C1015      O1016   1.256       .  A
O1017      C1032   1.272       .  A
O1017     Al1025   1.917       .  S
C1018      O1028   1.263       .  A
C1018      O1019   1.271       .  A
C1018      C1177   1.466       .  S
O1019     Al1021   1.924       .  S
O1020      C1022   1.253       .  A
O1020     Al1021   1.903       .  S
Al1021     O1029   1.887       .  S
Al1021     O1031   1.907       .  S
Al1021     O1030   1.777       .  S
C1022      O1035   1.257   1_565  A
C1022      C1201   1.488   1_565  S
O1023      C1033   1.258       .  A
O1023     Al1025   1.887       .  S
O1024      C1037   1.263       .  A
O1024     Al1034   1.930       .  S
Al1025     O1038   1.900       .  S
Al1025     O1035   1.928   1_565  S
Al1025     O1030   1.776       .  S
O1026      C1033   1.258       .  A
O1026     Al1034   1.874       .  S
O1027      C1036   1.269       .  A
O1027     Al1034   1.932       .  S
O1028     Al1034   1.910       .  S
O1029      C1036   1.257       .  A
O1030     Al1034   1.792       .  S
O1031      C1032   1.270       .  A
C1032      C1189   1.487       .  S
C1033      C1168   1.474       .  S
C1036      C1276   1.497       .  S
C1037      O1038   1.260       .  A
C1037      C1213   1.490       .  S
O1039      C1054   1.278       .  A
O1039     Al1047   1.933       .  S
C1040      O1050   1.271       .  A
C1040      O1041   1.276       .  A
C1040      C1180   1.482       .  S
O1041     Al1043   1.917       .  S
O1042      C1044   1.250       .  A
O1042     Al1043   1.894       .  S
Al1043     O1051   1.893       .  S
Al1043     O1053   1.901       .  S
Al1043     O1052   1.780       .  S
C1044      O1057   1.252   1_565  A
C1044      C1144   1.488   1_565  S
O1045      C1055   1.264       .  A
O1045     Al1047   1.902       .  S
O1046      C1059   1.264       .  A
O1046     Al1056   1.933       .  S
Al1047     O1060   1.876       .  S
Al1047     O1057   1.928   1_565  S
Al1047     O1052   1.779       .  S
O1048      C1055   1.252       .  A
O1048     Al1056   1.859       .  S
O1049      C1058   1.264       .  A
O1049     Al1056   1.927       .  S
O1050     Al1056   1.923       .  S
O1051      C1058   1.253       .  A
O1052     Al1056   1.789       .  S
O1053      C1054   1.275       .  A
C1054      C1192   1.479       .  S
C1055      C1129   1.474       .  S
C1058      C1324   1.485       .  S
C1059      O1060   1.255       .  A
O1061      C1076   1.258       .  A
O1061     Al1069   1.889       .  S
C1062      O1072   1.274       .  A
C1062      O1063   1.272       .  A
C1062      C1120   1.474       .  S
O1063     Al1065   1.932       .  S
O1064      C1066   1.253       .  A
O1064     Al1065   1.858       .  S
Al1065     O1073   1.933       .  S
Al1065     O1075   1.939       .  S
Al1065     O1074   1.784       .  S
C1066      O1079   1.264       .  A
C1066      C1132   1.472       .  S
O1067      C1077   1.257   1_565  A
O1067     Al1069   1.933   1_565  S
O1068      C1081   1.269       .  A
O1068     Al1078   1.900       .  S
Al1069     O1082   1.936       .  S
Al1069     O1079   1.909       .  S
Al1069     O1074   1.778       .  S
O1070      C1077   1.253       .  A
O1070     Al1078   1.917       .  S
O1071      C1080   1.255       .  A
O1071     Al1078   1.890       .  S
O1072     Al1078   1.917       .  S
O1073      C1080   1.266       .  A
O1074     Al1078   1.781       .  S
O1075      C1076   1.267       .  A
C1077      C1216   1.487   1_545  S
C1080      C1240   1.496       .  S
C1081      O1082   1.274       .  A
C1081      C1105   1.469       .  S
O1083      C1098   1.261       .  A
O1083     Al1091   1.896       .  S
C1084      O1094   1.273       .  A
C1084      O1085   1.269       .  A
C1084      C1117   1.483       .  S
O1085     Al1087   1.924       .  S
O1086      C1088   1.255       .  A
O1086     Al1087   1.856       .  S
Al1087     O1095   1.911       .  S
Al1087     O1097   1.917       .  S
Al1087     O1096   1.792       .  S
C1088      O1101   1.259       .  A
C1088      C1165   1.471       .  S
O1089      C1099   1.258       .  A
O1089     Al1091   1.933       .  S
O1090      C1103   1.272       .  A
O1090     Al1100   1.910       .  S
Al1091     O1104   1.921       .  S
Al1091     O1101   1.897       .  S
Al1091     O1096   1.781       .  S
O1092      C1099   1.253       .  A
O1092     Al1100   1.904       .  S
O1093      C1102   1.254       .  A
O1093     Al1100   1.897       .  S
O1094     Al1100   1.916       .  S
O1095      C1102   1.259       .  A
O1096     Al1100   1.783       .  S
O1097      C1098   1.261       .  A
C1098      C1141   1.490       .  S
C1099      C1153   1.493   1_545  S
C1102      C1225   1.478       .  S
C1103      O1104   1.272       .  A
C1103      C1108   1.486       .  S
C1105      C1106   1.403       .  A
C1105      C1110   1.402       .  A
C1106      C1107   1.404       .  A
C1106      H1115   1.082       .  S
C1107      C1108   1.414       .  A
C1107      S1111   1.801       .  S
C1108      C1109   1.406       .  A
C1109      C1110   1.395       .  A
C1109      H1116   1.081       .  S
C1110      S1112   1.798       .  S
S1111      H1114   1.408       .  S
S1112      H1113   1.405       .  S
C1117      C1118   1.402       .  A
C1117      C1122   1.416       .  A
C1118      C1583   1.401       .  A
C1118      H1127   1.082       .  S
C1119      C1582   1.401   1_554  A
C1119      C1120   1.416       .  A
C1119      S1123   1.808       .  S
C1120      C1121   1.403       .  A
C1121      C1586   1.403   1_554  A
C1121      H1128   1.084       .  S
C1122      C1585   1.403       .  A
C1122      S1124   1.805       .  S
S1123      H1126   1.398       .  S
S1124      H1125   1.407       .  S
C1129      C1130   1.400   1_565  A
C1129      C1134   1.420   1_655  A
C1130      H1139   1.084       .  S
C1131      C1132   1.418       .  A
C1131      S1135   1.804       .  S
C1132      C1133   1.399   1_545  A
C1133      H1140   1.084       .  S
C1134      S1136   1.804       .  S
S1135      H1138   1.403       .  S
S1136      H1137   1.407       .  S
C1141      C1142   1.411       .  A
C1141      C1146   1.406       .  A
C1142      C1143   1.415       .  A
C1142      H1151   1.082       .  S
C1143      C1144   1.414       .  A
C1143      S1147   1.803       .  S
C1144      C1145   1.403       .  A
C1145      C1146   1.394       .  A
C1145      H1152   1.081       .  S
C1146      S1148   1.792       .  S
S1147      H1150   1.407       .  S
S1148      H1149   1.408       .  S
C1153      C1154   1.407       .  A
C1153      C1158   1.416       .  A
C1154      C1155   1.402       .  A
C1154      H1163   1.084       .  S
C1155      C1156   1.413       .  A
C1155      S1159   1.805       .  S
C1156      C1157   1.409       .  A
C1157      C1158   1.411       .  A
C1157      H1164   1.083       .  S
C1158      S1160   1.803       .  S
S1160      H1161   1.403       .  S
C1165      C1166   1.403       .  A
C1165      C1170   1.413   1_545  A
C1166      C1631   1.389       .  A
C1166      H1175   1.085       .  S
C1167      C1630   1.389   1_554  A
C1167      C1168   1.416   1_545  A
C1167      S1171   1.802       .  S
C1168      C1169   1.407   1_554  A
C1169      C1634   1.393       .  A
C1169      H1176   1.084       .  S
C1170      C1633   1.394       .  A
C1170      S1172   1.803       .  S
S1171      H1174   1.408       .  S
S1172      H1173   1.408       .  S
C1177      C1178   1.400       .  A
C1177      C1182   1.409       .  A
C1178      C1643   1.398   1_554  A
C1178      H1187   1.081       .  S
C1179      C1642   1.398       .  A
C1179      C1180   1.413       .  A
C1179      S1183   1.794       .  S
C1180      C1181   1.408       .  A
C1181      C1646   1.401       .  A
C1181      H1188   1.082       .  S
C1182      C1645   1.401   1_554  A
C1182      S1184   1.803       .  S
S1183      H1186   1.408       .  S
S1184      H1185   1.406       .  S
C1189      C1190   1.407       .  A
C1189      C1194   1.416       .  A
C1190      C1191   1.396       .  A
C1190      H1199   1.084       .  S
C1191      C1192   1.412       .  A
C1191      S1195   1.804   1_565  S
C1192      C1193   1.405       .  A
C1193      C1194   1.402       .  A
C1193      H1200   1.084       .  S
C1194      S1196   1.800       .  S
S1195      H1198   1.403       .  S
S1196      H1197   1.407       .  S
C1201      C1202   1.404       .  A
C1201      C1206   1.414       .  A
C1202      C1203   1.401       .  A
C1202      H1211   1.085       .  S
C1203      C1204   1.414       .  A
C1204      C1205   1.409       .  A
C1205      C1206   1.409       .  A
C1205      H1212   1.083       .  S
C1206      S1208   1.802       .  S
S1207      H1210   1.405       .  S
S1208      H1209   1.405       .  S
C1213      C1214   1.402       .  A
C1213      C1218   1.419       .  A
C1214      C1215   1.404       .  A
C1214      H1223   1.084       .  S
C1215      C1216   1.412       .  A
C1215      S1219   1.795       .  S
C1216      C1217   1.401       .  A
C1217      C1218   1.410       .  A
C1217      H1224   1.082       .  S
C1218      S1220   1.805       .  S
S1219      H1222   1.406       .  S
S1220      H1221   1.407       .  S
C1225      C1226   1.403       .  A
C1225      C1230   1.414       .  A
C1226      C1227   1.402       .  A
C1226      H1235   1.083       .  S
C1227      C1228   1.416       .  A
C1227      S1231   1.804       .  S
C1228      C1229   1.402       .  A
C1229      C1230   1.400       .  A
C1229      H1236   1.083       .  S
C1230      S1232   1.802       .  S
S1231      H1234   1.407       .  S
S1232      H1233   1.407       .  S
C1237      C1238   1.415       .  A
C1237      C1242   1.410       .  A
C1238      C1239   1.405       .  A
C1238      H1247   1.084       .  S
C1239      C1240   1.410       .  A
C1239      S1243   1.802       .  S
C1240      C1241   1.414       .  A
C1241      C1242   1.401       .  A
C1241      H1248   1.083       .  S
C1242      S1244   1.801       .  S
S1243      H1246   1.408       .  S
S1244      H1245   1.406       .  S
C1249      C1250   1.407       .  A
C1249      C1254   1.417       .  A
C1250      C1715   1.394   1_554  A
C1250      H1259   1.084       .  S
C1251      C1714   1.394       .  A
C1251      C1252   1.412       .  A
C1251      S1255   1.805       .  S
C1252      C1253   1.405       .  A
C1253      C1718   1.404       .  A
C1253      H1260   1.085       .  S
C1254      C1717   1.404   1_554  A
C1254      S1256   1.801       .  S
S1255      H1258   1.407       .  S
S1256      H1257   1.407       .  S
C1261      C1262   1.402       .  A
C1261      C1266   1.413       .  A
C1262      C1263   1.400       .  A
C1262      H1271   1.084       .  S
C1263      C1264   1.412       .  A
C1263      S1267   1.799       .  S
C1264      C1265   1.401       .  A
C1265      C1266   1.397       .  A
C1265      H1272   1.084       .  S
C1266      S1268   1.805       .  S
S1267      H1270   1.405       .  S
S1268      H1269   1.407       .  S
C1273      C1274   1.416       .  A
C1273      C1278   1.410       .  A
C1274      C1275   1.405       .  A
C1274      H1283   1.084       .  S
C1275      C1276   1.410       .  A
C1275      S1279   1.800       .  S
C1276      C1277   1.415       .  A
C1277      C1278   1.398       .  A
C1277      H1284   1.083       .  S
C1278      S1280   1.802       .  S
S1279      H1282   1.408       .  S
S1280      H1281   1.407       .  S
C1285      C1286   1.401       .  A
C1285      C1290   1.415       .  A
C1286      C1287   1.397       .  A
C1286      H1295   1.082       .  S
C1287      S1291   1.811       .  S
C1288      C1289   1.403       .  A
C1289      H1296   1.082       .  S
C1297      C1298   1.407       .  A
C1297      C1302   1.414       .  A
C1298      C1299   1.403       .  A
C1298      H1307   1.084       .  S
C1299      C1300   1.411       .  A
C1299      S1303   1.804       .  S
C1300      C1301   1.408       .  A
C1301      C1302   1.406       .  A
C1301      H1308   1.084       .  S
C1302      S1304   1.801       .  S
S1303      H1306   1.407       .  S
S1304      H1305   1.406       .  S
C1309      C1310   1.401       .  A
C1309      C1314   1.415       .  A
C1310      C1311   1.407       .  A
C1310      H1319   1.085       .  S
C1311      C1312   1.420       .  A
C1311      S1315   1.801       .  S
C1312      C1313   1.403       .  A
C1313      C1314   1.403       .  A
C1314      S1316   1.804       .  S
S1315      H1318   1.406       .  S
S1316      H1317   1.407       .  S
C1321      C1322   1.403       .  A
C1321      C1326   1.417       .  A
C1322      C1323   1.404       .  A
C1322      H1331   1.082       .  S
C1323      C1324   1.419       .  A
C1323      S1327   1.804       .  S
C1324      C1325   1.402       .  A
C1325      C1326   1.403       .  A
C1325      H1332   1.082       .  S
C1326      S1328   1.803       .  S
S1327      H1330   1.406       .  S
S1328      H1329   1.407       .  S
C1333      C1334   1.404       .  A
C1333      C1338   1.414       .  A
C1334      C1335   1.394       .  A
C1334      H1343   1.083       .  S
C1335      C1336   1.411       .  A
C1335      S1339   1.804       .  S
C1336      C1337   1.403       .  A
C1337      C1338   1.396       .  A
C1337      H1344   1.084       .  S
C1338      S1340   1.804       .  S
S1339      H1342   1.406       .  S
S1340      H1341   1.403       .  S
C1345      C1346   1.400       .  A
C1345      C1350   1.412       .  A
C1346      C1347   1.400       .  A
C1346      H1355   1.085       .  S
C1347      C1348   1.414       .  A
C1347      S1351   1.797       .  S
C1348      C1349   1.405       .  A
C1349      C1350   1.401       .  A
C1349      H1356   1.085       .  S
C1350      S1352   1.804       .  S
S1351      H1354   1.403       .  S
S1352      H1353   1.406       .  S
C1357      C1358   1.405       .  A
C1357      C1362   1.419       .  A
C1358      C1823   1.404       .  A
C1358      H1367   1.083       .  S
C1359      C1822   1.404   1_554  A
C1359      C1360   1.416       .  A
C1359      S1363   1.802       .  S
C1360      C1361   1.402       .  A
C1361      C1826   1.397   1_554  A
C1361      H1368   1.084       .  S
C1362      C1825   1.397       .  A
C1362      S1364   1.805       .  S
S1363      H1366   1.408       .  S
S1364      H1365   1.408       .  S
C1369      C1370   1.406       .  A
C1369      C1374   1.414       .  A
C1370      C1371   1.396       .  A
C1370      H1379   1.083       .  S
C1371      C1372   1.410       .  A
C1372      C1373   1.408       .  A
C1373      C1374   1.413       .  A
C1373      H1380   1.082       .  S
C1374      S1376   1.803       .  S
S1375      H1378   1.408       .  S
S1376      H1377   1.407       .  S
C1381      C1382   1.407       .  A
C1381      C1386   1.412       .  A
C1382      C1383   1.407       .  A
C1382      H1391   1.083       .  S
C1383      C1384   1.415       .  A
C1383      S1387   1.799       .  S
C1384      C1385   1.406       .  A
C1385      C1386   1.398       .  A
C1385      H1392   1.084       .  S
C1386      S1388   1.806       .  S
S1387      H1390   1.407       .  S
S1388      H1389   1.408       .  S
O1393      C1408   1.255       .  A
O1393     Al1401   1.871       .  S
C1394      O1404   1.276       .  A
C1394      O1395   1.270       .  A
C1394      C1812   1.479       .  S
O1395     Al1397   1.920       .  S
O1396      C1398   1.256       .  A
O1396     Al1397   1.876       .  S
Al1397     O1405   1.923       .  S
Al1397     O1407   1.918       .  S
Al1397     O1406   1.793       .  S
C1398      O1411   1.260       .  A
C1398      C1800   1.467       .  S
O1399      C1409   1.254       .  A
O1399     Al1401   1.928       .  S
O1400      C1413   1.278       .  A
O1400     Al1410   1.921       .  S
Al1401     O1414   1.916       .  S
Al1401     O1411   1.896       .  S
Al1401     O1406   1.782       .  S
O1402      C1409   1.250       .  A
O1402     Al1410   1.891       .  S
O1403      C1412   1.252       .  A
O1403     Al1410   1.895       .  S
O1404     Al1410   1.925       .  S
O1405      C1412   1.261       .  A
O1406     Al1410   1.781       .  S
O1407      C1408   1.262       .  A
C1408      C1845   1.482       .  S
C1409      C1833   1.491       .  S
C1412      C1785   1.486       .  S
C1413      O1414   1.273       .  A
C1413      C1821   1.487       .  S
O1415      C1430   1.258       .  A
O1415     Al1423   1.888       .  S
C1416      O1426   1.277       .  A
C1416      O1417   1.271       .  A
C1416      C1809   1.471       .  S
O1417     Al1419   1.920       .  S
O1418      C1420   1.254       .  A
O1418     Al1419   1.868       .  S
Al1419     O1427   1.920       .  S
Al1419     O1429   1.918       .  S
Al1419     O1428   1.785       .  S
C1420      O1433   1.262       .  A
C1420      C1752   1.476       .  S
O1421      C1431   1.252       .  A
O1421     Al1423   1.926       .  S
O1422      C1435   1.276       .  A
O1422     Al1432   1.909       .  S
Al1423     O1436   1.931       .  S
Al1423     O1433   1.894       .  S
Al1423     O1428   1.776       .  S
O1424      C1431   1.249       .  A
O1424     Al1432   1.900       .  S
O1425      C1434   1.252       .  A
O1425     Al1432   1.892       .  S
O1426     Al1432   1.924       .  S
O1427      C1434   1.261       .  A
O1428     Al1432   1.780       .  S
O1429      C1430   1.262       .  A
C1431      C1761   1.488       .  S
C1434      C1737   1.496       .  S
C1435      O1436   1.277       .  A
C1435      C1824   1.483       .  S
O1437      C1452   1.276       .  A
O1437     Al1445   1.921       .  S
C1438      O1448   1.270       .  A
C1438      O1439   1.275       .  A
C1438      C1728   1.469       .  S
O1439     Al1441   1.917       .  S
O1440      C1442   1.249       .  A
O1440     Al1441   1.898       .  S
Al1441     O1449   1.895       .  S
Al1441     O1451   1.913       .  S
Al1441     O1450   1.784       .  S
C1442      O1455   1.255       .  A
C1442      C1773   1.486       .  S
O1443      C1453   1.260       .  A
O1443     Al1445   1.900       .  S
O1444      C1457   1.262       .  A
O1444     Al1454   1.917       .  S
Al1445     O1458   1.888       .  S
Al1445     O1455   1.934       .  S
Al1445     O1450   1.777       .  S
O1446      C1453   1.256       .  A
O1446     Al1454   1.872       .  S
O1447      C1456   1.262       .  A
O1447     Al1454   1.926       .  S
O1448     Al1454   1.913       .  S
O1449      C1456   1.253       .  A
O1450     Al1454   1.788       .  S
O1451      C1452   1.276       .  A
C1452      C1713   1.487       .  S
C1453      C1797   1.470       .  S
C1456      C1701   1.496       .  S
C1457      O1458   1.258       .  A
C1457      C1764   1.484       .  S
O1459      C1474   1.278       .  A
O1459     Al1467   1.927       .  S
C1460      O1470   1.274       .  A
C1460      O1461   1.278       .  A
C1460      C1725   1.469       .  S
O1461     Al1463   1.916       .  S
O1462      C1464   1.248       .  A
O1462     Al1463   1.895       .  S
Al1463     O1471   1.886       .  S
Al1463     O1473   1.907       .  S
Al1463     O1472   1.780       .  S
C1464      O1477   1.250       .  A
C1464      C1848   1.489       .  S
O1465      C1475   1.261       .  A
O1465     Al1467   1.892       .  S
O1466      C1479   1.262       .  A
O1466     Al1476   1.922       .  S
Al1467     O1480   1.870       .  S
Al1467     O1477   1.920       .  S
Al1467     O1472   1.774       .  S
O1468      C1475   1.254       .  A
O1468     Al1476   1.870       .  S
O1469      C1478   1.257       .  A
O1469     Al1476   1.916       .  S
O1470     Al1476   1.918       .  S
O1471      C1478   1.248       .  A
O1472     Al1476   1.787       .  S
O1473      C1474   1.277       .  A
C1474      C1716   1.478       .  S
C1475      C1749   1.473       .  S
C1478      C1692   1.478       .  S
C1479      O1480   1.256       .  A
O1481      C1496   1.272       .  A
O1481     Al1489   1.918       .  S
C1482      O1492   1.263       .  A
C1482      O1483   1.271       .  A
C1482      C1641   1.466       .  S
O1483     Al1485   1.925       .  S
O1484      C1486   1.253       .  A
O1484     Al1485   1.902       .  S
Al1485     O1493   1.887       .  S
Al1485     O1495   1.907       .  S
Al1485     O1494   1.777       .  S
C1486      O1499   1.257   1_565  A
C1486      C1665   1.488   1_565  S
O1487      C1497   1.258       .  A
O1487     Al1489   1.888       .  S
O1488      C1501   1.263       .  A
O1488     Al1498   1.930       .  S
Al1489     O1502   1.900       .  S
Al1489     O1499   1.928   1_565  S
Al1489     O1494   1.776       .  S
O1490      C1497   1.258       .  A
O1490     Al1498   1.874       .  S
O1491      C1500   1.269       .  A
O1491     Al1498   1.932       .  S
O1492     Al1498   1.910       .  S
O1493      C1500   1.257       .  A
O1494     Al1498   1.792       .  S
O1495      C1496   1.270       .  A
C1496      C1653   1.488       .  S
C1497      C1632   1.475       .  S
C1500      C1740   1.497       .  S
C1501      O1502   1.260       .  A
C1501      C1677   1.490       .  S
O1503      C1518   1.278       .  A
O1503     Al1511   1.933       .  S
C1504      O1514   1.271       .  A
C1504      O1505   1.276       .  A
C1504      C1644   1.482       .  S
O1505     Al1507   1.918       .  S
O1506      C1508   1.250       .  A
O1506     Al1507   1.894       .  S
Al1507     O1515   1.893       .  S
Al1507     O1517   1.902       .  S
Al1507     O1516   1.780       .  S
C1508      O1521   1.252   1_565  A
C1508      C1608   1.489   1_565  S
O1509      C1519   1.264       .  A
O1509     Al1511   1.902       .  S
O1510      C1523   1.264       .  A
O1510     Al1520   1.932       .  S
Al1511     O1524   1.876       .  S
Al1511     O1521   1.928   1_565  S
Al1511     O1516   1.779       .  S
O1512      C1519   1.252       .  A
O1512     Al1520   1.858       .  S
O1513      C1522   1.264       .  A
O1513     Al1520   1.928       .  S
O1514     Al1520   1.922       .  S
O1515      C1522   1.253       .  A
O1516     Al1520   1.789       .  S
O1517      C1518   1.275       .  A
C1518      C1656   1.479       .  S
C1519      C1593   1.474       .  S
C1522      C1788   1.485       .  S
C1523      O1524   1.255       .  A
O1525      C1540   1.258       .  A
O1525     Al1533   1.889       .  S
C1526      O1536   1.274       .  A
C1526      O1527   1.272       .  A
C1526      C1584   1.474       .  S
O1527     Al1529   1.931       .  S
O1528      C1530   1.253       .  A
O1528     Al1529   1.858       .  S
Al1529     O1537   1.933       .  S
Al1529     O1539   1.939       .  S
Al1529     O1538   1.784       .  S
C1530      O1543   1.264       .  A
C1530      C1596   1.472       .  S
O1531      C1541   1.256   1_565  A
O1531     Al1533   1.933   1_565  S
O1532      C1545   1.269       .  A
O1532     Al1542   1.900       .  S
Al1533     O1546   1.937       .  S
Al1533     O1543   1.909       .  S
Al1533     O1538   1.778       .  S
O1534      C1541   1.253       .  A
O1534     Al1542   1.917       .  S
O1535      C1544   1.255       .  A
O1535     Al1542   1.890       .  S
O1536     Al1542   1.917       .  S
O1537      C1544   1.266       .  A
O1538     Al1542   1.782       .  S
O1539      C1540   1.267       .  A
C1541      C1680   1.487   1_545  S
C1544      C1704   1.496       .  S
C1545      O1546   1.274       .  A
C1545      C1569   1.470       .  S
O1547      C1562   1.261       .  A
O1547     Al1555   1.896       .  S
C1548      O1558   1.273       .  A
C1548      O1549   1.269       .  A
C1548      C1581   1.483       .  S
O1549     Al1551   1.924       .  S
O1550      C1552   1.255       .  A
O1550     Al1551   1.856       .  S
Al1551     O1559   1.911       .  S
Al1551     O1561   1.917       .  S
Al1551     O1560   1.792       .  S
C1552      O1565   1.259       .  A
C1552      C1629   1.470       .  S
O1553      C1563   1.258       .  A
O1553     Al1555   1.933       .  S
O1554      C1567   1.272       .  A
O1554     Al1564   1.910       .  S
Al1555     O1568   1.921       .  S
Al1555     O1565   1.897       .  S
Al1555     O1560   1.781       .  S
O1556      C1563   1.253       .  A
O1556     Al1564   1.904       .  S
O1557      C1566   1.255       .  A
O1557     Al1564   1.898       .  S
O1558     Al1564   1.917       .  S
O1559      C1566   1.259       .  A
O1560     Al1564   1.783       .  S
O1561      C1562   1.261       .  A
C1562      C1605   1.490       .  S
C1563      C1617   1.493   1_545  S
C1566      C1689   1.478       .  S
C1567      O1568   1.272       .  A
C1567      C1572   1.486       .  S
C1569      C1570   1.403       .  A
C1569      C1574   1.402       .  A
C1570      C1571   1.404       .  A
C1570      H1579   1.082       .  S
C1571      C1572   1.414       .  A
C1571      S1575   1.801       .  S
C1572      C1573   1.406       .  A
C1573      C1574   1.396       .  A
C1573      H1580   1.081       .  S
C1574      S1576   1.798       .  S
S1575      H1578   1.408       .  S
S1576      H1577   1.405       .  S
C1581      C1582   1.402       .  A
C1581      C1586   1.416       .  A
C1582      H1591   1.082       .  S
C1583      C1584   1.416       .  A
C1583      S1587   1.808       .  S
C1584      C1585   1.403       .  A
C1585      H1592   1.084       .  S
C1586      S1588   1.805       .  S
S1587      H1590   1.398       .  S
S1588      H1589   1.407       .  S
C1593      C1594   1.400   1_565  A
C1593      C1598   1.420   1_655  A
C1594      H1603   1.084       .  S
C1595      C1596   1.418       .  A
C1595      S1599   1.803       .  S
C1596      C1597   1.400   1_545  A
C1597      H1604   1.084       .  S
C1598      S1600   1.804       .  S
S1599      H1602   1.403       .  S
S1600      H1601   1.407       .  S
C1605      C1606   1.411       .  A
C1605      C1610   1.406       .  A
C1606      C1607   1.415       .  A
C1606      H1615   1.081       .  S
C1607      C1608   1.414       .  A
C1607      S1611   1.804       .  S
C1608      C1609   1.403       .  A
C1609      C1610   1.394       .  A
C1609      H1616   1.080       .  S
C1610      S1612   1.792       .  S
S1611      H1614   1.407       .  S
S1612      H1613   1.408       .  S
C1617      C1618   1.407       .  A
C1617      C1622   1.417       .  A
C1618      C1619   1.402       .  A
C1618      H1627   1.084       .  S
C1619      C1620   1.413       .  A
C1619      S1623   1.805       .  S
C1620      C1621   1.409       .  A
C1621      C1622   1.411       .  A
C1621      H1628   1.083       .  S
C1622      S1624   1.803       .  S
S1624      H1625   1.403       .  S
C1629      C1630   1.403       .  A
C1629      C1634   1.413   1_545  A
C1630      H1639   1.085   1_556  S
C1631      C1632   1.415   1_545  A
C1631      S1635   1.802       .  S
C1632      C1633   1.407       .  A
C1633      H1640   1.084       .  S
C1634      S1636   1.803       .  S
S1635      H1638   1.409       .  S
S1636      H1637   1.408       .  S
C1641      C1642   1.400       .  A
C1641      C1646   1.409       .  A
C1642      H1651   1.081       .  S
C1643      C1644   1.414       .  A
C1643      S1647   1.794       .  S
C1644      C1645   1.408       .  A
C1645      H1652   1.082       .  S
C1646      S1648   1.803       .  S
S1647      H1650   1.408       .  S
S1648      H1649   1.405       .  S
C1653      C1654   1.407       .  A
C1653      C1658   1.417       .  A
C1654      C1655   1.396       .  A
C1654      H1663   1.084       .  S
C1655      C1656   1.412       .  A
C1655      S1659   1.804   1_565  S
C1656      C1657   1.405       .  A
C1657      C1658   1.403       .  A
C1657      H1664   1.084       .  S
C1658      S1660   1.800       .  S
S1659      H1662   1.403       .  S
S1660      H1661   1.407       .  S
C1665      C1666   1.404       .  A
C1665      C1670   1.415       .  A
C1666      C1667   1.401       .  A
C1666      H1675   1.085       .  S
C1667      C1668   1.413       .  A
C1668      C1669   1.409       .  A
C1669      C1670   1.409       .  A
C1669      H1676   1.083       .  S
C1670      S1672   1.802       .  S
S1671      H1674   1.405       .  S
S1672      H1673   1.405       .  S
C1677      C1678   1.402       .  A
C1677      C1682   1.419       .  A
C1678      C1679   1.405       .  A
C1678      H1687   1.084       .  S
C1679      C1680   1.412       .  A
C1679      S1683   1.795       .  S
C1680      C1681   1.401       .  A
C1681      C1682   1.410       .  A
C1681      H1688   1.082       .  S
C1682      S1684   1.805       .  S
S1683      H1686   1.406       .  S
S1684      H1685   1.407       .  S
C1689      C1690   1.403       .  A
C1689      C1694   1.414       .  A
C1690      C1691   1.402       .  A
C1690      H1699   1.083       .  S
C1691      C1692   1.416       .  A
C1691      S1695   1.804       .  S
C1692      C1693   1.402       .  A
C1693      C1694   1.401       .  A
C1693      H1700   1.083       .  S
C1694      S1696   1.802       .  S
S1695      H1698   1.407       .  S
S1696      H1697   1.407       .  S
C1701      C1702   1.415       .  A
C1701      C1706   1.410       .  A
C1702      C1703   1.405       .  A
C1702      H1711   1.084       .  S
C1703      C1704   1.410       .  A
C1703      S1707   1.802       .  S
C1704      C1705   1.414       .  A
C1705      C1706   1.401       .  A
C1705      H1712   1.083       .  S
C1706      S1708   1.801       .  S
S1707      H1710   1.408       .  S
S1708      H1709   1.406       .  S
C1713      C1714   1.407       .  A
C1713      C1718   1.417       .  A
C1714      H1723   1.084       .  S
C1715      C1716   1.412       .  A
C1715      S1719   1.805       .  S
C1716      C1717   1.405       .  A
C1717      H1724   1.084       .  S
C1718      S1720   1.801       .  S
S1719      H1722   1.407       .  S
S1720      H1721   1.407       .  S
C1725      C1726   1.403       .  A
C1725      C1730   1.413       .  A
C1726      C1727   1.401       .  A
C1726      H1735   1.084       .  S
C1727      C1728   1.412       .  A
C1727      S1731   1.799       .  S
C1728      C1729   1.401       .  A
C1729      C1730   1.397       .  A
C1729      H1736   1.084       .  S
C1730      S1732   1.805       .  S
S1731      H1734   1.405       .  S
S1732      H1733   1.407       .  S
C1737      C1738   1.416       .  A
C1737      C1742   1.410       .  A
C1738      C1739   1.405       .  A
C1738      H1747   1.084       .  S
C1739      C1740   1.410       .  A
C1739      S1743   1.800       .  S
C1740      C1741   1.415       .  A
C1741      C1742   1.399       .  A
C1741      H1748   1.083       .  S
C1742      S1744   1.802       .  S
S1743      H1746   1.408       .  S
S1744      H1745   1.407       .  S
C1749      C1750   1.401       .  A
C1749      C1754   1.415       .  A
C1750      C1751   1.397       .  A
C1750      H1759   1.082       .  S
C1751      S1755   1.811       .  S
C1752      C1753   1.403       .  A
C1753      H1760   1.082       .  S
C1761      C1762   1.407       .  A
C1761      C1766   1.414       .  A
C1762      C1763   1.403       .  A
C1762      H1771   1.084       .  S
C1763      C1764   1.411       .  A
C1763      S1767   1.804       .  S
C1764      C1765   1.408       .  A
C1765      C1766   1.406       .  A
C1765      H1772   1.084       .  S
C1766      S1768   1.801       .  S
S1767      H1770   1.407       .  S
S1768      H1769   1.406       .  S
C1773      C1774   1.401       .  A
C1773      C1778   1.415       .  A
C1774      C1775   1.407       .  A
C1774      H1783   1.085       .  S
C1775      C1776   1.420       .  A
C1775      S1779   1.801       .  S
C1776      C1777   1.403       .  A
C1777      C1778   1.402       .  A
C1778      S1780   1.804       .  S
S1779      H1782   1.406       .  S
S1780      H1781   1.407       .  S
C1785      C1786   1.403       .  A
C1785      C1790   1.417       .  A
C1786      C1787   1.404       .  A
C1786      H1795   1.082       .  S
C1787      C1788   1.419       .  A
C1787      S1791   1.804       .  S
C1788      C1789   1.403       .  A
C1789      C1790   1.403       .  A
C1789      H1796   1.082       .  S
C1790      S1792   1.803       .  S
S1791      H1794   1.406       .  S
S1792      H1793   1.407       .  S
C1797      C1798   1.404       .  A
C1797      C1802   1.414       .  A
C1798      C1799   1.394       .  A
C1798      H1807   1.083       .  S
C1799      C1800   1.411       .  A
C1799      S1803   1.804       .  S
C1800      C1801   1.403       .  A
C1801      C1802   1.396       .  A
C1801      H1808   1.084       .  S
C1802      S1804   1.804       .  S
S1803      H1806   1.406       .  S
S1804      H1805   1.403       .  S
C1809      C1810   1.400       .  A
C1809      C1814   1.412       .  A
C1810      C1811   1.400       .  A
C1810      H1819   1.085       .  S
C1811      C1812   1.414       .  A
C1811      S1815   1.796       .  S
C1812      C1813   1.405       .  A
C1813      C1814   1.401       .  A
C1813      H1820   1.085       .  S
C1814      S1816   1.804       .  S
S1815      H1818   1.403       .  S
S1816      H1817   1.406       .  S
C1821      C1822   1.406       .  A
C1821      C1826   1.419       .  A
C1822      H1831   1.083       .  S
C1823      C1824   1.416       .  A
C1823      S1827   1.802       .  S
C1824      C1825   1.402       .  A
C1825      H1832   1.084       .  S
C1826      S1828   1.805       .  S
S1827      H1830   1.408       .  S
S1828      H1829   1.408       .  S
C1833      C1834   1.406       .  A
C1833      C1838   1.414       .  A
C1834      C1835   1.396       .  A
C1834      H1843   1.083       .  S
C1835      C1836   1.410       .  A
C1836      C1837   1.408       .  A
C1837      C1838   1.413       .  A
C1837      H1844   1.082       .  S
C1838      S1840   1.803       .  S
S1839      H1842   1.408       .  S
S1840      H1841   1.407       .  S
C1845      C1846   1.407       .  A
C1845      C1850   1.412       .  A
C1846      C1847   1.407       .  A
C1846      H1855   1.083       .  S
C1847      C1848   1.415       .  A
C1847      S1851   1.799       .  S
C1848      C1849   1.406       .  A
C1849      C1850   1.398       .  A
C1849      H1856   1.084       .  S
C1850      S1852   1.806       .  S
S1851      H1854   1.407       .  S
S1852      H1853   1.408       .  S
