geometry optimzed in LAMMPS
_audit_creation_date              2020-12-01 
_audit_creation_method            'lammps2cif' 
_symmetry_space_group_name_H-M    'P1' 
_symmetry_Int_Tables_number       1 
_symmetry_cell_setting            triclinic 
loop_ 
_symmetry_equiv_pos_as_xyz 
  x,y,z 
_cell_length_a                    27.61281848 
_cell_length_b                    47.28359900797837 
_cell_length_c                    30.912486528494078 
_cell_angle_alpha                 90.15505538292318 
_cell_angle_beta                  111.29250685454458 
_cell_angle_gamma                 90.11509985783484 
loop_ 
_atom_site_label 
_atom_site_type_symbol 
_atom_site_fract_x 
_atom_site_fract_y 
_atom_site_fract_z 
_atom_site_charge 
O1          O  0.72431745  0.54545427  0.81361765    -0.84700
O2          O  0.62288864  0.56120004  0.77354844    -0.81700
C3          C  0.58430647  0.57579346  0.74972587     0.98800
O4          O  0.58689722  0.59176806  0.71771732    -0.81700
O5          O  0.66649963  0.63425148  0.74435305    -0.84400
C6          C  0.71131741  0.64502091  0.75428469     1.03300
O7          O  0.74823366  0.62945146  0.75399681    -0.77200
O8          O  0.75519958  0.58885733  0.82130184    -0.77300
C9          C  0.74244683  0.56710898  0.83873872     1.03300
O10         O  0.72077178  0.52408058  0.72348909    -0.84700
O11         O  0.61648636  0.53816874  0.68678278    -0.81700
C12         C  0.60527121  0.55070516  0.64837379     0.98800
O13         O  0.62256237  0.57506884  0.64613888    -0.81800
O14         O  0.69592442  0.61616989  0.66871993    -0.84400
C15         C  0.73072000  0.60141887  0.66182659     1.03300
O16         O  0.76057571  0.58620382  0.69426016    -0.77200
O17         O  0.78626767  0.54873192  0.76808024    -0.77300
C18         C  0.76922931  0.52741531  0.74258346     1.03300
Cr19       Cr  0.67276670  0.54474536  0.74825937     1.93700
Cr20       Cr  0.64630621  0.60255889  0.69769290     1.93200
Cr21       Cr  0.75799931  0.58774881  0.75791248     1.39100
O22         O  0.69156481  0.57842697  0.73476067    -1.22400
O23         O  0.75957994  0.54244402  0.18955792    -0.84700
O24         O  0.85976709  0.55940709  0.23557972    -0.81700
C25         C  0.89687003  0.57380506  0.26286957     0.98800
O26         O  0.89133323  0.58766005  0.29586520    -0.81700
O27         O  0.81232814  0.62899933  0.26887092    -0.84400
C28         C  0.76745031  0.63964556  0.25731111     1.03300
O29         O  0.72915056  0.62375915  0.25293641    -0.77200
O30         O  0.72751201  0.58537447  0.18333773    -0.77300
C31         C  0.74218454  0.56443168  0.16552587     1.03300
O32         O  0.75755012  0.51815551  0.27552413    -0.84700
O33         O  0.86207513  0.53271214  0.31828569    -0.81700
C34         C  0.87056551  0.54358086  0.35774273     0.98800
O35         O  0.85009440  0.56679597  0.36157847    -0.81800
O36         O  0.77607993  0.60804259  0.33880627    -0.84400
C37         C  0.73745176  0.59400871  0.33997059     1.03300
O38         O  0.71120026  0.57853697  0.30591541    -0.77200
O39         O  0.69214268  0.54247651  0.22980409    -0.77300
C40         C  0.70943556  0.52039337  0.25294795     1.03300
Cr41       Cr  0.80778291  0.54055342  0.25596965     1.93700
Cr42       Cr  0.82918401  0.59618706  0.31261911     1.93200
Cr43       Cr  0.71975321  0.58192947  0.24474783     1.39100
O44         O  0.78622921  0.57296779  0.27115311    -1.22400
O45         O  0.22127604  0.40834659  0.18969830    -0.84700
O46         O  0.23659240  0.36836985  0.25933097    -0.81700
C47         C  0.27686988  0.35506471  0.26112815     0.98800
O48         O  0.31951687  0.36794513  0.27056721    -0.81700
O49         O  0.39207835  0.41236379  0.29345636    -0.84400
C50         C  0.39162100  0.42642572  0.25846803     1.03300
O51         O  0.35095769  0.43914198  0.23372275    -0.77200
O52         O  0.24784641  0.45241297  0.19487488    -0.77300
C53         C  0.23141702  0.43023470  0.17089510     1.03300
O54         O  0.18747826  0.44784555  0.24362649    -0.84700
O55         O  0.21827966  0.41097711  0.31782562    -0.81700
C56         C  0.24970655  0.39679052  0.35078286     0.98800
O57         O  0.28764098  0.38435855  0.34525205    -0.81800
O58         O  0.35356262  0.42899543  0.36363500    -0.84400
C59         C  0.36870024  0.45353288  0.35926992     1.03300
O60         O  0.35743432  0.46457135  0.31964147    -0.77200
O61         O  0.25241386  0.47512857  0.28305672    -0.77300
C62         C  0.20425628  0.47047944  0.26578853     1.03300
Cr63       Cr  0.22044141  0.40967057  0.25397692     1.93700
Cr64       Cr  0.33451791  0.40001645  0.31479549     1.93200
Cr65       Cr  0.30090054  0.45523725  0.25912510     1.39100
O66         O  0.28573739  0.42162204  0.27590614    -1.22400
O67         O  0.24608609  0.40801518  0.82698528    -0.84700
O68         O  0.24509431  0.36829196  0.75994893    -0.81700
C69         C  0.20514004  0.35349777  0.75383346     0.98800
O70         O  0.16095900  0.36508441  0.74077763    -0.81700
O71         O  0.08477990  0.40808765  0.71187036    -0.84400
C72         C  0.07946692  0.42317622  0.74380807     1.03300
O73         O  0.11687576  0.43777480  0.77016532    -0.77200
O74         O  0.21750051  0.45175680  0.81949201    -0.77300
C75         C  0.23208958  0.42957535  0.84388700     1.03300
O76         O  0.28753413  0.44867450  0.78164467    -0.84700
O77         O  0.26804794  0.41194089  0.70678750    -0.81700
C78         C  0.24108115  0.39694763  0.67235988     0.98800
O79         O  0.20134021  0.38373173  0.67281716    -0.81800
O80         O  0.13013017  0.42605162  0.64710869    -0.84400
C81         C  0.11372014  0.45065999  0.64908887     1.03300
O82         O  0.12209496  0.46251945  0.68786456    -0.77200
O83         O  0.22630083  0.47436049  0.73421602    -0.77300
C84         C  0.27395864  0.47047611  0.75685543     1.03300
Cr85       Cr  0.25698287  0.40995846  0.76694652     1.93700
Cr86       Cr  0.14762238  0.39751595  0.69691881     1.93200
Cr87       Cr  0.17241812  0.45406378  0.75185571     1.39100
O88         O  0.19157040  0.42043041  0.73851149    -1.22400
O89         O  0.74880220  0.90474689  0.31900929    -0.84700
O90         O  0.74833886  0.86616524  0.25087705    -0.81700
C91         C  0.70783640  0.85180074  0.24489430     0.98800
O92         O  0.66404923  0.86388868  0.23024902    -0.81700
O93         O  0.58945463  0.90804229  0.20043612    -0.84400
C94         C  0.58389118  0.92263381  0.23286540     1.03300
O95         O  0.62183482  0.93589931  0.26114488    -0.77200
O96         O  0.72211276  0.94874839  0.31246147    -0.77300
C97         C  0.73438945  0.92612241  0.33594090     1.03300
O98         O  0.79384386  0.94617940  0.27671121    -0.84700
O99         O  0.77572021  0.91036056  0.20153808    -0.81700
C100        C  0.74948349  0.89624103  0.16581816     0.98800
O101        O  0.70869919  0.88311214  0.16429079    -0.81800
O102        O  0.63938281  0.92608297  0.13914560    -0.84400
C103        C  0.62323135  0.95066047  0.14163794     1.03300
O104        O  0.62991161  0.96188449  0.18058356    -0.77200
O105        O  0.73351494  0.97237517  0.22916866    -0.77300
C106        C  0.78086629  0.96833292  0.25256587     1.03300
Cr107      Cr  0.76205972  0.90762751  0.26009889     1.93700
Cr108      Cr  0.65361408  0.89682378  0.18736058     1.93200
Cr109      Cr  0.67848409  0.95225577  0.24476819     1.39100
O110        O  0.69731922  0.91884754  0.23058323    -1.22400
O111        O  0.73201034  0.91946649  0.68981194    -0.84700
O112        O  0.77048671  0.87086012  0.73784591    -0.81700
C113        C  0.80194032  0.85413221  0.76549997     0.98800
O114        O  0.84177482  0.86392571  0.79711212    -0.81700
O115        O  0.90404620  0.89838936  0.76153016    -0.84400
C116        C  0.92065906  0.92066351  0.74885430     1.03300
O117        O  0.89950756  0.94436482  0.74979830    -0.77200
O118        O  0.80146170  0.94171943  0.68729825    -0.77300
C119        C  0.75824570  0.92986167  0.66710577     1.03300
O120        O  0.72690017  0.94324484  0.77653840    -0.84700
O121        O  0.76705379  0.89533089  0.82369891    -0.81700
C122        C  0.80485836  0.90046588  0.86154193     0.98800
O123        O  0.84881786  0.90735071  0.86146292    -0.81800
O124        O  0.91716111  0.93700321  0.83532512    -0.84400
C125        C  0.90167678  0.96106252  0.84234858     1.03300
O126        O  0.85921144  0.97062426  0.81464133    -0.77200
O127        O  0.76165609  0.97392850  0.74421702    -0.77300
C128        C  0.72776406  0.96773026  0.76118922     1.03300
Cr129      Cr  0.75435125  0.90836622  0.75792737     1.93700
Cr130      Cr  0.87315545  0.90290829  0.81006345     1.93200
Cr131      Cr  0.82950960  0.95504156  0.75095189     1.39100
O132        O  0.81845465  0.92180695  0.77225135    -1.22400
O133        O  0.22698851  0.04707095  0.31044083    -0.84700
O134        O  0.12556515  0.06019382  0.26663693    -0.81700
C135        C  0.08797008  0.07580263  0.24425221     0.98800
O136        O  0.09158054  0.09285964  0.21399176    -0.81700
O137        O  0.17131768  0.13446387  0.24436845    -0.84400
C138        C  0.21580477  0.14558415  0.25509345     1.03300
O139        O  0.25265738  0.13096028  0.25250162    -0.77200
O140        O  0.25812740  0.09052855  0.31879042    -0.77300
C141        C  0.24340395  0.06908239  0.33535380     1.03300
O142        O  0.22972287  0.02622322  0.22096136    -0.84700
O143        O  0.12589867  0.03882026  0.18015315    -0.81700
C144        C  0.11483596  0.05269544  0.14289263     0.98800
O145        O  0.12902601  0.07796837  0.14313905    -0.81800
O146        O  0.20229572  0.11840065  0.16723998    -0.84400
C147        C  0.23853790  0.10436628  0.16114891     1.03300
O148        O  0.26767056  0.08873097  0.19346618    -0.77200
O149        O  0.29316739  0.05088526  0.26782289    -0.77300
C150        C  0.27787425  0.02991222  0.24129880     1.03300
Cr151      Cr  0.17868831  0.04558877  0.24363443     1.93700
Cr152      Cr  0.15194677  0.10419754  0.19563494     1.93200
Cr153      Cr  0.26328303  0.08956035  0.25645495     1.39100
O154        O  0.19704227  0.07973301  0.23183662    -1.22400
O155        O  0.26950417  0.04787661  0.68778302    -0.84700
O156        O  0.37210150  0.06218661  0.72850317    -0.81700
C157        C  0.41211441  0.07532626  0.75382149     0.98800
O158        O  0.41001116  0.09126121  0.78621466    -0.81700
O159        O  0.33164542  0.13465828  0.76159063    -0.84400
C160        C  0.28710627  0.14568802  0.75172234     1.03300
O161        O  0.25003244  0.13064446  0.75323991    -0.77200
O162        O  0.23839611  0.09101869  0.68372518    -0.77300
C163        C  0.24979295  0.06976603  0.66423817     1.03300
O164        O  0.27282507  0.02411885  0.77566008    -0.84700
O165        O  0.37785775  0.03762504  0.81437222    -0.81700
C166        C  0.39031504  0.04973898  0.85351571     0.98800
O167        O  0.37416328  0.07418132  0.85712994    -0.81800
O168        O  0.30337330  0.11641328  0.83818232    -0.84400
C169        C  0.26680526  0.10278635  0.84434251     1.03300
O170        O  0.23690484  0.08733921  0.81196247    -0.77200
O171        O  0.20719392  0.05040369  0.73629785    -0.77300
C172        C  0.22439368  0.02769514  0.75741022     1.03300
Cr173      Cr  0.32150296  0.04559412  0.75297997     1.93700
Cr174      Cr  0.35111164  0.10244047  0.80705117     1.93200
Cr175      Cr  0.23805160  0.08909912  0.74786703     1.39100
O176        O  0.30418406  0.07901129  0.76924498    -1.22400
C177        C  0.22733544  0.09511714  0.54147728    -0.27500
C178        C  0.23749892  0.07037359  0.52101059     0.06100
C179        C  0.24893674  0.04534254  0.54714764     0.25700
C180        C  0.25072861  0.04521686  0.59286425    -0.12000
C181        C  0.24145283  0.07001263  0.61390194    -0.26000
C182        C  0.22901902  0.09501541  0.58738691     0.36500
C183        C  0.23786463  0.07077141  0.47307445     0.06100
F184        F  0.26074802  0.02123665  0.52918733    -0.19700
H185        H  0.26083729  0.02563660  0.61226877     0.15900
F186        F  0.22014831  0.11955953  0.60610002    -0.23500
H187        H  0.21839669  0.11466307  0.52186263     0.17700
C188        C  0.20870533  0.05094788  0.43981562     0.25700
C189        C  0.21188367  0.05023247  0.39573799    -0.12000
C190        C  0.24354286  0.06952594  0.38344704    -0.26000
C191        C  0.27164133  0.08992729  0.41634906     0.36600
C192        C  0.26887599  0.09041605  0.46076751    -0.27600
F193        F  0.17624345  0.03260433  0.44962565    -0.19800
H194        H  0.18857298  0.03486459  0.37083910     0.15900
F195        F  0.30227422  0.10916148  0.40594967    -0.23500
H196        H  0.29162566  0.10584820  0.48585274     0.17700
C197        C  0.29096141  0.12225988  0.97000744    -0.27500
C198        C  0.25561022  0.10462661  0.97989257     0.06100
C199        C  0.22206127  0.08735478  0.94461420     0.25700
C200        C  0.22469997  0.08736996  0.90017224    -0.12000
C201        C  0.26059340  0.10479881  0.89010726    -0.26000
C202        C  0.29342325  0.12254858  0.92563266     0.36500
C203        C  0.25274000  0.10511157  0.02669377     0.06100
F204        F  0.18751634  0.07006683  0.95350448    -0.19700
H205        H  0.19929291  0.07334824  0.87391137     0.15900
F206        F  0.32841729  0.14007775  0.91790891    -0.23500
H207        H  0.31658628  0.13594138  0.99675549     0.17700
C208        C  0.29120530  0.09226100  0.06461462     0.25700
C209        C  0.28725657  0.09257231  0.10860357    -0.12000
C210        C  0.24525906  0.10607684  0.11556075    -0.26000
C211        C  0.20739472  0.11945540  0.07730339     0.36600
C212        C  0.21117888  0.11878049  0.03345669    -0.27600
F213        F  0.33185512  0.07886770  0.05879309    -0.19800
H214        H  0.31671302  0.08194510  0.13705271     0.15900
F215        F  0.16574601  0.13262005  0.08164775    -0.23500
H216        H  0.18144111  0.12890926  0.00454805     0.17700
C217        C  0.94330145  0.01159126  0.94399034    -0.27500
C218        C  0.99538414  0.00377372  0.96605985     0.06100
C219        C  0.01743227  0.98346614  0.94584212     0.25700
C220        C  0.98698045  0.97042680  0.90449290    -0.12000
C221        C  0.93416506  0.97742817  0.88295063    -0.26000
C222        C  0.91262127  0.99846305  0.90264946     0.36500
C223        C  0.02609111  0.01614496  0.01108755     0.06100
F224        F  0.06821100  0.97617414  0.96633655    -0.19700
H225        H  0.00457405  0.95443837  0.88969337     0.15900
F226        F  0.86152630  0.00528729  0.88338399    -0.23500
H227        H  0.92605040  0.02726244  0.95966288     0.17700
C228        C  0.03886483  0.04489568  0.01462546     0.25700
C229        C  0.06791068  0.05651439  0.05765566    -0.12000
C230        C  0.08416405  0.03964887  0.09788001    -0.26000
C231        C  0.07075259  0.01075871  0.09409287     0.36600
C232        C  0.04216790  0.99912398  0.05078882    -0.27600
F233        F  0.02384674  0.06157148  0.97634903    -0.19800
H234        H  0.07751240  0.07880323  0.05937759     0.15900
F235        F  0.08520797  0.99372576  0.13191281    -0.23500
H236        H  0.03206262  0.97687602  0.04818551     0.17700
C237        C  0.63662580  0.03185154  0.73350428    -0.27500
C238        C  0.60397128  0.02533254  0.75793206     0.06100
C239        C  0.61395665  0.00075035  0.78517463     0.25700
C240        C  0.65487396  0.98268109  0.78691373    -0.12000
C241        C  0.68730332  0.98872291  0.76183920    -0.26000
C242        C  0.67819665  0.01396535  0.73571827     0.36500
C243        C  0.55765511  0.04301657  0.75316730     0.06100
F244        F  0.58283616  0.99367745  0.80885944    -0.19700
H245        H  0.66061191  0.96360839  0.80745328     0.15900
F246        F  0.70826700  0.02098961  0.71105577    -0.23500
H247        H  0.62952621  0.05067536  0.71226266     0.17700
C248        C  0.55620889  0.06001640  0.79005640     0.25700
C249        C  0.50961266  0.07286964  0.78810701    -0.12000
C250        C  0.46319990  0.06867195  0.74963006    -0.26000
C251        C  0.46573230  0.05312611  0.71140851     0.36600
C252        C  0.51251770  0.04056662  0.71326137    -0.27600
F253        F  0.59933580  0.06311590  0.82890334    -0.19800
H254        H  0.50918048  0.08446097  0.81818650     0.15900
F255        F  0.42240660  0.04870417  0.67316189    -0.23500
H256        H  0.51282824  0.02761771  0.68444443     0.17700
C257        C  0.01890937  0.94715176  0.70196502    -0.27500
C258        C  0.06454890  0.94433116  0.74134245     0.06100
C259        C  0.06363735  0.92702046  0.77795649     0.25700
C260        C  0.01646833  0.91536288  0.77714611    -0.12000
C261        C  0.96977764  0.92108908  0.74008961    -0.26000
C262        C  0.97186806  0.93573295  0.70134070     0.36500
C263        C  0.10793763  0.96457851  0.74811671     0.06100
F264        F  0.10680958  0.92427670  0.81680914    -0.19700
H265        H  0.01555620  0.90470574  0.80779979     0.15900
F266        F  0.92747785  0.94149668  0.66496643    -0.23500
H267        H  0.01881608  0.96040079  0.67341652     0.17700
C268        C  0.15839644  0.95607266  0.75271977     0.25700
C269        C  0.19741472  0.97648985  0.75779067    -0.12000
C270        C  0.18637191  0.00555617  0.75822350    -0.26000
C271        C  0.13624125  0.01369311  0.75532213     0.36600
C272        C  0.09774469  0.99346677  0.75023882    -0.27600
F273        F  0.16934266  0.92825563  0.75058576    -0.19800
H274        H  0.23544458  0.96968188  0.75965227     0.15900
F275        F  0.12415928  0.04137383  0.75726816    -0.23500
H276        H  0.05952718  0.00040555  0.74773611     0.17700
C277        C  0.46163872  0.02933432  0.97920790    -0.27500
C278        C  0.49832636  0.00995212  0.97523166     0.06100
C279        C  0.49888947  0.00368980  0.93086445     0.25700
C280        C  0.46294321  0.01627924  0.89141906    -0.12000
C281        C  0.42628225  0.03564018  0.89543936    -0.26000
C282        C  0.42620278  0.04225506  0.93983694     0.36500
C283        C  0.53374582  0.99527601  0.01715552     0.06100
F284        F  0.53479777  0.98580178  0.92565628    -0.19700
H285        H  0.46450494  0.01132498  0.85775725     0.15900
F286        F  0.39113311  0.06068896  0.94519594    -0.23500
H287        H  0.45969984  0.03407488  0.01278687     0.17700
C288        C  0.56063047  0.01021022  0.05843621     0.25700
C289        C  0.59028742  0.99566504  0.09868698    -0.12000
C290        C  0.59436514  0.96605696  0.09833887    -0.26000
C291        C  0.56878081  0.95124461  0.05661496     0.36600
C292        C  0.53858954  0.96574089  0.01668293    -0.27600
F293        F  0.55846408  0.03886178  0.05983565    -0.19800
H294        H  0.61003284  0.00756582  0.13015720     0.15900
F295        F  0.57087479  0.92260156  0.05474580    -0.23500
H296        H  0.51760411  0.95371163  0.98567896     0.17700
C297        C  0.80279011  0.91736961  0.07337573    -0.27500
C298        C  0.78067871  0.89640730  0.03961616     0.06100
C299        C  0.75262549  0.87418935  0.04951126     0.25700
C300        C  0.74469846  0.87368103  0.09155405    -0.12000
C301        C  0.76488822  0.89519376  0.12475248    -0.26000
C302        C  0.79487497  0.91690267  0.11563174     0.36500
C303        C  0.78652932  0.89777022  0.99398711     0.06100
F304        F  0.73282044  0.85295613  0.01840122    -0.19700
H305        H  0.72184135  0.85662936  0.09778166     0.15900
F306        F  0.81410385  0.93845346  0.14625647    -0.23500
H307        H  0.82473547  0.93459711  0.06633571     0.17700
C308        C  0.74272986  0.89742729  0.95251778     0.25700
C309        C  0.74875658  0.89774522  0.90949262    -0.12000
C310        C  0.79852734  0.89865053  0.90708858    -0.26000
C311        C  0.84239810  0.89927941  0.94894334     0.36600
C312        C  0.83620575  0.89892365  0.99178180    -0.27600
F313        F  0.69406832  0.89745004  0.95367946    -0.19800
H314        H  0.71445503  0.89778648  0.87810256     0.15900
F315        F  0.89151711  0.90000676  0.94880429    -0.23500
H316        H  0.87031987  0.89913924  0.02335921     0.17700
C317        C  0.70477163  0.94661181  0.44253452    -0.27500
C318        C  0.72442213  0.92358813  0.47219610     0.06100
C319        C  0.74567662  0.90061761  0.45612147     0.25700
C320        C  0.74889599  0.90140213  0.41182415    -0.12000
C321        C  0.73136450  0.92515259  0.38299465    -0.26000
C322        C  0.70853937  0.94763105  0.39881908     0.36500
C323        C  0.72741477  0.92546488  0.52112301     0.06100
F324        F  0.76539291  0.87802726  0.48389266    -0.19700
H325        H  0.76592391  0.88361177  0.40042425     0.15900
F326        F  0.68982168  0.97083360  0.37228815    -0.23500
H327        H  0.68740279  0.96433212  0.45378791     0.17700
C328        C  0.74893642  0.94982031  0.54723693     0.25700
C329        C  0.75460178  0.95160983  0.59368504    -0.12000
C330        C  0.73995160  0.92908778  0.61587557    -0.26000
C331        C  0.71665786  0.90501489  0.58973104     0.36600
C332        C  0.71050038  0.90324306  0.54255069    -0.27600
F333        F  0.76755859  0.97133742  0.52866693    -0.19800
H334        H  0.77297561  0.97032266  0.61310735     0.15900
F335        F  0.70306824  0.88263975  0.61033691    -0.23500
H336        H  0.69349329  0.88435455  0.52300650     0.17700
C337        C  0.85003924  0.03425295  0.23154313    -0.27500
C338        C  0.90262815  0.02681947  0.25405703     0.06100
C339        C  0.91402717  0.00015459  0.27563877     0.25700
C340        C  0.87423683  0.98183100  0.27535296    -0.12000
C341        C  0.82173092  0.98907258  0.25284365    -0.26000
C342        C  0.80993901  0.01554197  0.23054926     0.36500
C343        C  0.94593077  0.04589857  0.25386515     0.06100
F344        F  0.96384782  0.99113143  0.29564806    -0.19700
H345        H  0.88486764  0.96152760  0.29220600     0.15900
F346        F  0.75986559  0.02340742  0.20778689    -0.23500
H347        H  0.83988360  0.05460061  0.21479891     0.17700
C348        C  0.94570822  0.05894270  0.21279592     0.25700
C349        C  0.99106488  0.07168941  0.21128475    -0.12000
C350        C  0.03756980  0.07125211  0.25028948    -0.26000
C351        C  0.03635168  0.06063616  0.29234200     0.36600
C352        C  0.99081863  0.04859969  0.29416772    -0.27600
F353        F  0.90338858  0.05717494  0.17298645    -0.19800
H354        H  0.99097868  0.07956406  0.17839379     0.15900
F355        F  0.08008610  0.06030462  0.33109526    -0.23500
H356        H  0.99162738  0.03985866  0.32675304     0.17700
C357        C  0.40793176  0.00021817  0.24822164    -0.27500
C358        C  0.39544820  0.97239077  0.23233436     0.06100
C359        C  0.34304002  0.96373395  0.21651088     0.25700
C360        C  0.30425820  0.98251140  0.21836424    -0.12000
C361        C  0.31729359  0.01015345  0.23591516    -0.26000
C362        C  0.36964960  0.01891385  0.24979935     0.36500
C363        C  0.43847114  0.95310285  0.23366831     0.06100
F364        F  0.32967656  0.93693129  0.20089640    -0.19700
H365        H  0.26438712  0.97524713  0.20715487     0.15900
F366        F  0.38423313  0.04571830  0.26488436    -0.23500
H367        H  0.44781929  0.00753399  0.25960242     0.17700
C368        C  0.44136020  0.94120621  0.19291982     0.25700
C369        C  0.48755208  0.92838736  0.19369372    -0.12000
C370        C  0.53162760  0.92751149  0.23497364    -0.26000
C371        C  0.52695517  0.93728794  0.27636884     0.36600
C372        C  0.48092581  0.94994320  0.27555660    -0.27600
F373        F  0.40145071  0.94430912  0.15169623    -0.19800
H374        H  0.49018677  0.92138472  0.16126429     0.15900
F375        F  0.56802992  0.93631286  0.31723494    -0.23500
H376        H  0.47938045  0.95875331  0.30739197     0.17700
C377        C  0.26314096  0.28076928  0.78811043    -0.27500
C378        C  0.23965096  0.26552119  0.74648400     0.06100
C379        C  0.20103427  0.27910921  0.70918022     0.25700
C380        C  0.18659237  0.30706266  0.71360166    -0.12000
C381        C  0.21106269  0.32240572  0.75471091    -0.26000
C382        C  0.24966763  0.30902812  0.79197471     0.36500
C383        C  0.25365698  0.23523046  0.74286290     0.06100
F384        F  0.17903784  0.26589904  0.66754107    -0.19700
H385        H  0.15853979  0.31735911  0.68372865     0.15900
F386        F  0.27499922  0.32349735  0.83182970    -0.23500
H387        H  0.29219576  0.27083632  0.81771028     0.17700
C388        C  0.30570417  0.22574841  0.75969900     0.25700
C389        C  0.31717745  0.19671408  0.75974146    -0.12000
C390        C  0.27707514  0.17658501  0.74295762    -0.26000
C391        C  0.22531574  0.18640923  0.72361160     0.36600
C392        C  0.21401206  0.21517270  0.72398381    -0.27600
F393        F  0.34549892  0.24447505  0.77661821    -0.19800
H394        H  0.35722614  0.18991890  0.77481946     0.15900
F395        F  0.18492959  0.16809569  0.70577370    -0.23500
H396        H  0.17367772  0.22160218  0.71106073     0.17700
C397        C  0.30049964  0.27888718  0.29737893    -0.27500
C398        C  0.25653871  0.26557231  0.26505197     0.06100
C399        C  0.22235990  0.28175013  0.22851465     0.25700
C400        C  0.23073685  0.31074739  0.22588208    -0.12000
C401        C  0.27419903  0.32399769  0.25853342    -0.26000
C402        C  0.30964160  0.30774761  0.29390135     0.36500
C403        C  0.24682045  0.23488249  0.26898631     0.06100
F404        F  0.18089041  0.26955513  0.19519748    -0.19700
H405        H  0.20271531  0.32303234  0.19871365     0.15900
F406        F  0.35093957  0.32016996  0.32712950    -0.23500
H407        H  0.32705214  0.26714491  0.32627835     0.17700
C408        C  0.28731573  0.21524052  0.27763650     0.25700
C409        C  0.27692094  0.18636614  0.27652546    -0.12000
C410        C  0.22587636  0.17614029  0.26578071    -0.26000
C411        C  0.18579482  0.19571977  0.25994368     0.36600
C412        C  0.19642088  0.22481393  0.26196155    -0.21200
F413        F  0.33645514  0.22372814  0.28403614    -0.19800
H414        H  0.30897962  0.17192124  0.28167920     0.15900
F415        F  0.13613995  0.18691214  0.25015058    -0.23500
H416        H  0.16477180  0.23954824  0.25668265     0.17700
C417        C  0.23881981  0.40472936  0.96326931    -0.27500
C418        C  0.22329916  0.42917474  0.98066810     0.06100
C419        C  0.21189749  0.45372237  0.95321729     0.25700
C420        C  0.21614134  0.45375646  0.90953547    -0.12000
C421        C  0.23168386  0.42933887  0.89191021    -0.26000
C422        C  0.24295310  0.40471153  0.91937356     0.36500
C423        C  0.22223698  0.42960518  0.02844045     0.06100
F424        F  0.19569914  0.47763004  0.96825512    -0.19700
H425        H  0.20655074  0.47294573  0.88926924     0.15900
F426        F  0.25755848  0.38050740  0.90387087    -0.23500
H427        H  0.24858235  0.38573105  0.98401591     0.17700
C428        C  0.19753059  0.40819811  0.04460236     0.25700
C429        C  0.19948702  0.40860705  0.09065487    -0.12000
C430        C  0.22560701  0.43049521  0.12116465    -0.26000
C431        C  0.24937234  0.45213444  0.10437782     0.36600
C432        C  0.24782035  0.45149644  0.05883316    -0.27600
F433        F  0.17112921  0.38708283  0.01580002    -0.19800
H434        H  0.18080134  0.39172691  0.10249566     0.15900
F435        F  0.27606453  0.47353222  0.13234205    -0.23500
H436        H  0.26797460  0.46793471  0.04759876     0.17700
C437        C  0.21607748  0.41405274  0.45687797    -0.27500
C438        C  0.24905939  0.39533426  0.48961339     0.06100
C439        C  0.27871383  0.37594085  0.47545250     0.25700
C440        C  0.27647440  0.37575922  0.42969443    -0.12000
C441        C  0.24463850  0.39490240  0.39686202    -0.26000
C442        C  0.21363095  0.41384387  0.41074456     0.36500
C443        C  0.25188640  0.39548640  0.53830847     0.06100
F444        F  0.31141468  0.35783192  0.50639171    -0.19700
H445        H  0.30097693  0.36098310  0.42031779     0.15900
F446        F  0.18251521  0.43280267  0.38044561    -0.23500
H447        H  0.19238571  0.42889658  0.46716044     0.17700
C448        C  0.26558783  0.42010191  0.56579285     0.25700
C449        C  0.26654262  0.41989865  0.61140919    -0.12000
C450        C  0.25300412  0.39529596  0.62975272    -0.26000
C451        C  0.24125495  0.37044053  0.60276480     0.36600
C452        C  0.24096610  0.37057225  0.55757179    -0.27600
F453        F  0.27738750  0.44435275  0.54833304    -0.19800
H454        H  0.27487387  0.43934601  0.63138947     0.15900
F455        F  0.22835568  0.34623043  0.61961580    -0.23500
H456        H  0.23058639  0.35138895  0.53700166     0.17700
C457        C  0.68069796  0.77251258  0.23061106    -0.27500
C458        C  0.73080924  0.76119034  0.25304235     0.06100
C459        C  0.77178589  0.77994393  0.27597065     0.25700
C460        C  0.76311676  0.80912541  0.27492056    -0.12000
C461        C  0.71339998  0.82056347  0.25138678    -0.26000
C462        C  0.67188097  0.80179432  0.23003678     0.36500
C463        C  0.74008094  0.72999917  0.25270104     0.06100
F464        F  0.82034022  0.77011898  0.29977781    -0.19700
H465        H  0.79595605  0.82292270  0.29205083     0.15900
F466        F  0.62328419  0.81170556  0.20675294    -0.23500
H467        H  0.64834018  0.75869937  0.21227093     0.17700
C468        C  0.70594476  0.71069873  0.26142670     0.25700
C469        C  0.71492558  0.68162665  0.26152859    -0.12000
C470        C  0.75860449  0.67077575  0.25382323    -0.26000
C471        C  0.79305810  0.68994477  0.24526777     0.36600
C472        C  0.78347858  0.71920508  0.24422310    -0.27600
F473        F  0.66483921  0.71989238  0.27173448    -0.19800
H474        H  0.68809176  0.66752076  0.26915353     0.15900
F475        F  0.83549721  0.68047526  0.23740365    -0.23500
H476        H  0.81005437  0.73347419  0.23659412     0.17700
C477        C  0.03586325  0.50659422  0.56416799    -0.27500
C478        C  0.01483268  0.49083625  0.52294196     0.06100
C479        C  0.02892953  0.46228430  0.52288871     0.25700
C480        C  0.06228608  0.44966460  0.56366210    -0.12000
C481        C  0.08215748  0.46516663  0.60539934    -0.26000
C482        C  0.06910407  0.49398708  0.60502566     0.36500
C483        C  0.97751587  0.50414945  0.48050089     0.06100
F484        F  0.00872998  0.44624254  0.48391774    -0.19700
H485        H  0.07133406  0.42744661  0.56277767     0.15900
F486        F  0.08813698  0.51003854  0.64407644    -0.23500
H487        H  0.02627883  0.52876185  0.56475805     0.17700
C488        C  0.93383218  0.51882912  0.48199254     0.25700
C489        C  0.89906953  0.53153027  0.44196166    -0.12000
C490        C  0.90673310  0.52949612  0.39961848    -0.26000
C491        C  0.95040751  0.51478614  0.39806333     0.36600
C492        C  0.98539560  0.50230410  0.43819583    -0.27600
F493        F  0.92415985  0.52034820  0.52195794    -0.19800
H494        H  0.86563664  0.54274159  0.44392295     0.15900
F495        F  0.96038576  0.51340010  0.35820522    -0.23500
H496        H  0.01927965  0.49150244  0.43640523     0.17700
C497        C  0.59435975  0.47104813  0.20722924    -0.27500
C498        C  0.58630648  0.46355129  0.24808083     0.06100
C499        C  0.62390503  0.47173843  0.29118464     0.25700
C500        C  0.66672553  0.48842175  0.29290622    -0.12000
C501        C  0.67222408  0.49762150  0.25182955    -0.26000
C502        C  0.63630897  0.48824426  0.20896797     0.36500
C503        C  0.53611484  0.45027502  0.24529505     0.06100
F504        F  0.61714167  0.46560550  0.33148973    -0.19700
H505        H  0.69354020  0.49580600  0.32623121     0.15900
F506        F  0.64077216  0.49663359  0.16860552    -0.23500
H507        H  0.56674254  0.46460332  0.17365602     0.17700
C508        C  0.48855952  0.46171953  0.21578992     0.25700
C509        C  0.44154889  0.45202187  0.21763418    -0.12000
C510        C  0.44044405  0.43099094  0.24934067    -0.26000
C511        C  0.48767217  0.41804135  0.27647848     0.36600
C512        C  0.53493122  0.42765251  0.27437562    -0.27600
F513        F  0.48745677  0.48389724  0.18766084    -0.19800
H514        H  0.40609505  0.46244808  0.19614860     0.15900
F515        F  0.48858499  0.39695504  0.30646976    -0.23500
H516        H  0.57084632  0.41798369  0.29661456     0.17700
C517        C  0.04145379  0.56258996  0.30091431    -0.27500
C518        C  0.04466634  0.54972401  0.26121269     0.06100
C519        C  0.00122340  0.54999061  0.21966571     0.25700
C520        C  0.95377143  0.56062584  0.21904567    -0.12000
C521        C  0.94903315  0.57115839  0.25989025    -0.26000
C522        C  0.99410931  0.57339690  0.30038315     0.36500
C523        C  0.08818368  0.53051125  0.26577356     0.06100
F524        F  0.00365008  0.53768304  0.18078360    -0.19700
H525        H  0.91985656  0.55871399  0.18743825     0.15900
F526        F  0.99140700  0.58298894  0.34087854    -0.23500
H527        H  0.07450587  0.56213200  0.33335224     0.17700
C528        C  0.13572860  0.54015344  0.26439231     0.25700
C529        C  0.17484155  0.52067428  0.26643831    -0.12000
C530        C  0.16642879  0.49149567  0.26939499    -0.26000
C531        C  0.11938543  0.48219843  0.27245979     0.36600
C532        C  0.08080785  0.50156873  0.27071733    -0.27600
F533        F  0.14356158  0.56812727  0.25960835    -0.19800
H534        H  0.21074336  0.52823857  0.26388836     0.15900
F535        F  0.11059113  0.45429456  0.27698905    -0.23500
H536        H  0.04455443  0.49394043  0.27250627     0.17700
C537        C  0.69481656  0.72558591  0.75359276    -0.27500
C538        C  0.74638561  0.73477363  0.76341161     0.06100
C539        C  0.78565803  0.71428348  0.77328062     0.25700
C540        C  0.77368946  0.68555483  0.77271975    -0.12000
C541        C  0.72209478  0.67605827  0.76162466    -0.26000
C542        C  0.68266599  0.69653298  0.75268212     0.36500
C543        C  0.75984423  0.76547056  0.76345734     0.06100
F544        F  0.83564774  0.72191453  0.78142319    -0.19700
H545        H  0.80521083  0.67061553  0.77953379     0.15900
F546        F  0.63237920  0.68857659  0.74176748    -0.23500
H547        H  0.66387627  0.74092027  0.74640931     0.17700
C548        C  0.73300882  0.78329993  0.72602194     0.25700
C549        C  0.74783916  0.81177754  0.72612107    -0.12000
C550        C  0.78987197  0.82317943  0.76338023    -0.26000
C551        C  0.81665639  0.80520646  0.80076569     0.36600
C552        C  0.80165437  0.77687736  0.80068051    -0.27600
F553        F  0.69314268  0.77308131  0.68885166    -0.19800
H554        H  0.72606088  0.82499823  0.69701149     0.15900
F555        F  0.85642754  0.81509947  0.83833800    -0.23500
H556        H  0.82260718  0.76380175  0.83027139     0.17700
C557        C  0.43849460  0.51222604  0.44211268    -0.27500
C558        C  0.46833939  0.49661961  0.48130335     0.06100
C559        C  0.46472337  0.46694957  0.48000587     0.25700
C560        C  0.43153475  0.45325877  0.44040384    -0.12000
C561        C  0.40201320  0.46878399  0.40104961    -0.26000
C562        C  0.40580995  0.49845359  0.40208524     0.36500
C563        C  0.50270838  0.51119214  0.52369808     0.06100
F564        F  0.49430025  0.45110245  0.51659236    -0.19700
H565        H  0.42981741  0.43038150  0.44021635     0.15900
F566        F  0.37724266  0.51415284  0.36490606    -0.23500
H567        H  0.44007216  0.53510123  0.44268002     0.17700
C568        C  0.53747573  0.53243141  0.52151830     0.25700
C569        C  0.57070703  0.54528983  0.56221808    -0.12000
C570        C  0.57018398  0.53696941  0.60564594    -0.26000
C571        C  0.53493448  0.51596027  0.60767479     0.36600
C572        C  0.50135883  0.50341444  0.56701566    -0.27600
F573        F  0.54042767  0.54015924  0.48028109    -0.19800
H574        H  0.59751192  0.56145998  0.55981770     0.15900
F575        F  0.53196330  0.50795086  0.64878698    -0.23500
H576        H  0.47397658  0.48758838  0.56937471     0.17700
C577        C  0.70906342  0.57305133  0.44627021    -0.27500
C578        C  0.72444192  0.59771567  0.47325478     0.06100
C579        C  0.73817735  0.62185310  0.45402202     0.25700
C580        C  0.73880783  0.62091905  0.40919756    -0.12000
C581        C  0.72534487  0.59600507  0.38254945    -0.26000
C582        C  0.70900645  0.57221449  0.40091630     0.36500
C583        C  0.72675850  0.59843321  0.52164212     0.06100
F584        F  0.75340393  0.64592082  0.47947414    -0.19700
H585        H  0.75173438  0.63947390  0.39584558     0.15900
F586        F  0.69637906  0.54771217  0.37635073    -0.23500
H587        H  0.69793903  0.55435314  0.46066508     0.17700
C588        C  0.69443254  0.61683942  0.53422440     0.25700
C589        C  0.69781500  0.61841443  0.58021269    -0.12000
C590        C  0.73343921  0.60161133  0.61479285    -0.26000
C591        C  0.76639946  0.58333793  0.60216020     0.36600
C592        C  0.76283997  0.58176748  0.55579206    -0.27600
F593        F  0.65874661  0.63288229  0.50172905    -0.19800
H594        H  0.67143296  0.63246457  0.58843621     0.15900
F595        F  0.80124477  0.56665858  0.63415866    -0.23500
H596        H  0.78842148  0.56768472  0.54650547     0.17700
C597        C  0.71470987  0.58598984  0.04002734    -0.27500
C598        C  0.74329562  0.56556576  0.02638543     0.06100
C599        C  0.77075712  0.54495276  0.05844195     0.25700
C600        C  0.76912095  0.54463241  0.10299724    -0.12000
C601        C  0.74045091  0.56493693  0.11694749    -0.26000
C602        C  0.71318062  0.58575416  0.08489710     0.36500
C603        C  0.74463427  0.56579381  0.97887744     0.06100
F604        F  0.80047806  0.52559335  0.04711913    -0.19700
H605        H  0.79146142  0.52863445  0.12705051     0.15900
F606        F  0.68485473  0.60570109  0.09665667    -0.23500
H607        H  0.69316841  0.60205102  0.01565426     0.17700
C608        C  0.73069647  0.54157477  0.95057665     0.25700
C609        C  0.73196865  0.54196562  0.90583128    -0.12000
C610        C  0.74698627  0.56652204  0.88812807    -0.26000
C611        C  0.76152410  0.59067615  0.91679380     0.36600
C612        C  0.76012013  0.59026163  0.96165087    -0.27600
F613        F  0.71411234  0.51779496  0.96559287    -0.19800
H614        H  0.71996768  0.52312225  0.88468287     0.15900
F615        F  0.77603448  0.61489703  0.90133003    -0.23500
H616        H  0.77122502  0.60905440  0.98304874     0.17700
C617        C  0.93446807  0.43422430  0.70813576    -0.27500
C618        C  0.93303461  0.45023763  0.74594783     0.06100
C619        C  0.97771144  0.45132643  0.78667851     0.25700
C620        C  0.02448727  0.43981580  0.78732929    -0.12000
C621        C  0.02766666  0.42667612  0.74762016    -0.26000
C622        C  0.98137175  0.42235828  0.70892113     0.36500
C623        C  0.88874709  0.46946944  0.74076783     0.06100
F624        F  0.97706983  0.46549165  0.82474212    -0.19700
H625        H  0.05911365  0.44296410  0.81797433     0.15900
F626        F  0.98222058  0.40917148  0.67015697    -0.23500
H627        H  0.90034819  0.43283112  0.67662362     0.17700
C628        C  0.89874475  0.49845069  0.74966495     0.25700
C629        C  0.85898939  0.51681574  0.74824319    -0.12000
C630        C  0.80781815  0.50707233  0.73749430    -0.26000
C631        C  0.79667042  0.47838554  0.72523057     0.36600
C632        C  0.83709000  0.45969721  0.72694867    -0.27600
F633        F  0.94735475  0.50913205  0.75991742    -0.19800
H634        H  0.86869733  0.53890458  0.75635323     0.15900
F635        F  0.74754555  0.46822343  0.71341841    -0.23500
H636        H  0.82837801  0.43753062  0.71884809     0.17700
C637        C  0.48620176  0.54796839  0.79827904    -0.27500
C638        C  0.44121048  0.54622312  0.75786581     0.06100
C639        C  0.44160128  0.55960039  0.71732678     0.25700
C640        C  0.48741510  0.57204845  0.71640016    -0.12000
C641        C  0.53383539  0.57096870  0.75550461    -0.26000
C642        C  0.53221402  0.55973231  0.79704830     0.36500
C643        C  0.39714699  0.52756337  0.75722757     0.06100
F644        F  0.39931920  0.55843941  0.67741534    -0.19700
H645        H  0.48761063  0.58028193  0.68385212     0.15900
F646        F  0.57587763  0.55854040  0.83580828    -0.23500
H647        H  0.48661582  0.53869043  0.83035297     0.17700
C648        C  0.40760579  0.50030773  0.77651881     0.25700
C649        C  0.36727839  0.48244366  0.77615850    -0.12000
C650        C  0.31500888  0.49076554  0.75593657    -0.26000
C651        C  0.30404231  0.51778791  0.73552285     0.36600
C652        C  0.34484600  0.53603082  0.73645943    -0.27600
F653        F  0.45700668  0.49037934  0.79454877    -0.19800
H654        H  0.37732990  0.46166014  0.79139205     0.15900
F655        F  0.25422792  0.52669786  0.71506649    -0.23500
H656        H  0.33554905  0.55685353  0.72126720     0.17700
loop_ 
_geom_bond_atom_site_label_1 
_geom_bond_atom_site_label_2 
_geom_bond_distance 
_geom_bond_site_symmetry_2 
_ccdc_geom_bond_type 
O1          Cr19   2.005       .  S
O1            C9   1.270       .  A
O2          Cr19   1.974       .  S
O2            C3   1.261       .  A
C3            O4   1.269       .  A
C3          C641   1.485       .  S
O4          Cr20   2.018       .  S
O5          Cr20   2.009       .  S
O5            C6   1.267       .  A
C6            O7   1.261       .  A
C6          C541   1.497       .  S
O7          Cr21   1.989       .  S
O8          Cr21   1.989       .  S
O8            C9   1.269       .  A
C9          C610   1.486       .  S
O10         Cr19   2.009       .  S
O10          C18   1.260       .  A
O11         Cr19   1.993       .  S
O11          C12   1.263       .  A
C12          O13   1.258       .  A
C12         C570   1.473       .  S
O13         Cr20   1.971       .  S
O14         Cr20   1.996       .  S
O14          C15   1.267       .  A
C15          O16   1.268       .  A
C15         C590   1.483       .  S
O16         Cr21   1.996       .  S
O17         Cr21   1.986       .  S
O17          C18   1.258       .  A
C18         C630   1.487       .  S
Cr19         O22   1.771       .  S
Cr20         O22   1.775       .  S
Cr21         O22   1.764       .  S
O23         Cr41   2.003       .  S
O23          C31   1.269       .  A
O24         Cr41   1.977       .  S
O24          C25   1.261       .  A
C25          O26   1.266       .  A
C25         C521   1.482       .  S
O26         Cr42   2.006       .  S
O27         Cr42   2.002       .  S
O27          C28   1.264       .  A
C28          O29   1.262       .  A
C28         C470   1.490       .  S
O29         Cr43   1.998       .  S
O30         Cr43   1.993       .  S
O30          C31   1.268       .  A
C31         C601   1.485       .  S
O32         Cr41   2.004       .  S
O32          C40   1.261       .  A
O33         Cr41   2.001       .  S
O33          C34   1.263       .  A
C34          O35   1.261       .  A
C34         C490   1.478       .  S
O35         Cr42   1.984       .  S
O36         Cr42   1.996       .  S
O36          C37   1.267       .  A
C37          O38   1.268       .  A
C37         C581   1.474       .  S
O38         Cr43   1.996       .  S
O39         Cr43   2.002       .  S
O39          C40   1.260       .  A
C40         C501   1.478       .  S
Cr41         O44   1.768       .  S
Cr42         O44   1.772       .  S
Cr43         O44   1.770       .  S
O45         Cr63   1.996       .  S
O45          C53   1.268       .  A
O46         Cr63   1.998       .  S
O46          C47   1.263       .  A
C47          O48   1.261       .  A
C47         C401   1.471       .  S
O48         Cr64   1.979       .  S
O49         Cr64   2.015       .  S
O49          C50   1.267       .  A
C50          O51   1.260       .  A
C50         C510   1.490       .  S
O51         Cr65   1.974       .  S
O52         Cr65   1.998       .  S
O52          C53   1.267       .  A
C53         C430   1.487       .  S
O54         Cr63   1.997       .  S
O54          C62   1.262       .  A
O55         Cr63   1.997       .  S
O55          C56   1.267       .  A
C56          O57   1.266       .  A
C56         C441   1.484       .  S
O57         Cr64   1.999       .  S
O58         Cr64   1.960       .  S
O58          C59   1.257       .  A
C59          O60   1.264       .  A
C59         C561   1.471       .  S
O60         Cr65   2.001       .  S
O61         Cr65   1.986       .  S
O61          C62   1.259       .  A
C62         C530   1.476       .  S
Cr63         O66   1.771       .  S
Cr64         O66   1.772       .  S
Cr65         O66   1.769       .  S
O67         Cr85   1.987       .  S
O67          C75   1.268       .  A
O68         Cr85   1.995       .  S
O68          C69   1.260       .  A
C69          O70   1.264       .  A
C69         C381   1.479       .  S
O70         Cr86   1.994       .  S
O71         Cr86   2.015       .  S
O71          C72   1.268       .  A
C72          O73   1.261       .  A
C72         C621   1.487       .  S
O73         Cr87   1.973       .  S
O74         Cr87   2.011       .  S
O74          C75   1.271       .  A
C75         C421   1.489       .  S
O76         Cr85   1.995       .  S
O76          C84   1.260       .  A
O77         Cr85   1.993       .  S
O77          C78   1.268       .  A
C78          O79   1.266       .  A
C78         C450   1.471       .  S
O79         Cr86   1.996       .  S
O80         Cr86   1.974       .  S
O80          C81   1.259       .  A
C81          O82   1.265       .  A
C81         C481   1.485       .  S
O82         Cr87   2.003       .  S
O83         Cr87   2.005       .  S
O83          C84   1.260       .  A
C84         C650   1.492       .  S
Cr85         O88   1.770       .  S
Cr86         O88   1.776       .  S
Cr87         O88   1.771       .  S
O89        Cr107   1.989       .  S
O89          C97   1.266       .  A
O90        Cr107   1.996       .  S
O90          C91   1.262       .  A
C91          O92   1.265       .  A
C91         C461   1.492       .  S
O92        Cr108   2.000       .  S
O93        Cr108   2.026       .  S
O93          C94   1.270       .  A
C94          O95   1.259       .  A
C94         C370   1.486       .  S
O95        Cr109   1.968       .  S
O96        Cr109   2.007       .  S
O96          C97   1.270       .  A
C97         C321   1.488       .  S
O98        Cr107   2.005       .  S
O98         C106   1.263       .  A
O99        Cr107   1.983       .  S
O99         C100   1.266       .  A
C100        O101   1.271       .  A
C100        C301   1.479       .  S
O101       Cr108   2.008       .  S
O102       Cr108   1.969       .  S
O102        C103   1.258       .  A
C103        O104   1.265       .  A
C103        C290   1.480       .  S
O104       Cr109   2.004       .  S
O105       Cr109   1.994       .  S
O105        C106   1.259       .  A
C106        C341   1.491       .  S
Cr107       O110   1.770       .  S
Cr108       O110   1.773       .  S
Cr109       O110   1.767       .  S
O111       Cr129   2.038       .  S
O111        C119   1.276       .  A
O112       Cr129   1.982       .  S
O112        C113   1.256       .  A
C113        O114   1.263       .  A
C113        C550   1.496       .  S
O114       Cr130   2.012       .  S
O115       Cr130   1.988       .  S
O115        C116   1.267       .  A
C116        O117   1.270       .  A
C116        C261   1.477       .  S
O117       Cr131   2.011       .  S
O118       Cr131   1.937       .  S
O118        C119   1.258       .  A
C119        C330   1.478       .  S
O120       Cr129   1.985       .  S
O120        C128   1.256       .  A
O121       Cr129   2.031       .  S
O121        C122   1.276       .  A
C122        O123   1.257       .  A
C122        C310   1.483       .  S
O123       Cr130   1.948       .  S
O124       Cr130   1.995       .  S
O124        C125   1.262       .  A
C125        O126   1.260       .  A
C125        C221   1.467       .  S
O126       Cr131   1.977       .  S
O127       Cr131   2.019       .  S
O127        C128   1.262       .  A
C128        C241   1.502       .  S
Cr129       O132   1.777       .  S
Cr130       O132   1.782       .  S
Cr131       O132   1.774       .  S
O133       Cr151   2.012       .  S
O133        C141   1.274       .  A
O134       Cr151   1.973       .  S
O134        C135   1.259       .  A
C135        O136   1.268       .  A
C135        C350   1.485       .  S
O136       Cr152   2.018       .  S
O137       Cr152   2.001       .  S
O137        C138   1.263       .  A
C138        O139   1.258       .  A
C138        C410   1.484       .  S
O139       Cr153   1.978       .  S
O140       Cr153   1.983       .  S
O140        C141   1.268       .  A
C141        C190   1.485       .  S
O142       Cr151   2.009       .  S
O142        C150   1.259       .  A
O143       Cr151   1.999       .  S
O143        C144   1.265       .  A
C144        O145   1.256       .  A
C144        C230   1.474       .  S
O145       Cr152   1.952       .  S
O146       Cr152   2.010       .  S
O146        C147   1.271       .  A
C147        O148   1.271       .  A
C147        C210   1.489       .  S
O148       Cr153   1.995       .  S
O149       Cr153   1.987       .  S
O149        C150   1.256       .  A
C150        C361   1.490       .  S
Cr151       O154   1.769       .  S
Cr152       O154   1.773       .  S
Cr153       O154   1.768       .  S
O155       Cr173   2.009       .  S
O155        C163   1.271       .  A
O156       Cr173   1.977       .  S
O156        C157   1.259       .  A
C157        O158   1.270       .  A
C157        C250   1.497       .  S
O158       Cr174   2.025       .  S
O159       Cr174   2.013       .  S
O159        C160   1.268       .  A
C160        O161   1.260       .  A
C160        C390   1.495       .  S
O161       Cr175   1.988       .  S
O162       Cr175   1.989       .  S
O162        C163   1.268       .  A
C163        C181   1.488       .  S
O164       Cr173   2.003       .  S
O164        C172   1.260       .  A
O165       Cr173   2.007       .  S
O165        C166   1.266       .  A
C166        O167   1.259       .  A
C166        C281   1.477       .  S
O167       Cr174   1.971       .  S
O168       Cr174   2.005       .  S
O168        C169   1.268       .  A
C169        O170   1.269       .  A
C169        C201   1.488       .  S
O170       Cr175   1.995       .  S
O171       Cr175   1.993       .  S
O171        C172   1.259       .  A
C172        C270   1.488       .  S
Cr173       O176   1.775       .  S
Cr174       O176   1.778       .  S
Cr175       O176   1.769       .  S
C177        C178   1.405       .  A
C177        C182   1.403       .  A
C177        H187   1.085       .  S
C178        C183   1.486       .  S
C178        C179   1.405       .  A
C179        C180   1.396       .  A
C179        F184   1.358       .  S
C180        C181   1.408       .  A
C180        H185   1.085       .  S
C181        C182   1.411       .  A
C182        F186   1.357       .  S
C183        C188   1.405       .  A
C183        C192   1.406       .  A
C188        C189   1.397       .  A
C188        F193   1.358       .  S
C189        C190   1.407       .  A
C189        H194   1.082       .  S
C190        C191   1.409       .  A
C191        C192   1.403       .  A
C191        F195   1.357       .  S
C192        H196   1.082       .  S
C197        C198   1.399       .  A
C197        C202   1.398       .  A
C197        H207   1.083       .  S
C198        C203   1.477   1_556  S
C198        C199   1.405       .  A
C199        C200   1.402       .  A
C199        F204   1.357       .  S
C200        C201   1.407       .  A
C200        H205   1.083       .  S
C201        C202   1.415       .  A
C202        F206   1.358       .  S
C203        C208   1.405       .  A
C203        C212   1.398       .  A
C208        C209   1.403       .  A
C208        F213   1.357       .  S
C209        C210   1.408       .  A
C209        H214   1.083       .  S
C210        C211   1.414       .  A
C211        C212   1.397       .  A
C211        F215   1.357       .  S
C212        H216   1.083       .  S
C217        C218   1.400       .  A
C217        C222   1.394   1_545  A
C217        H227   1.085       .  S
C218        C223   1.461   1_656  S
C218        C219   1.400   1_645  A
C219        C220   1.391   1_455  A
C219        F224   1.358       .  S
C220        C221   1.406       .  A
C220        H225   1.085   1_655  S
C221        C222   1.406       .  A
C222        F226   1.357   1_565  S
C223        C228   1.398       .  A
C223        C232   1.401   1_545  A
C228        C229   1.391       .  A
C228        F233   1.358   1_554  S
C229        C230   1.409       .  A
C229        H234   1.083       .  S
C230        C231   1.408       .  A
C231        C232   1.394   1_545  A
C231        F235   1.357   1_545  S
C232        H236   1.083       .  S
C237        C238   1.405       .  A
C237        C242   1.409       .  A
C237        H247   1.083       .  S
C238        C243   1.492       .  S
C238        C239   1.405       .  A
C239        C240   1.403   1_545  A
C239        F244   1.358   1_545  S
C240        C241   1.410       .  A
C240        H245   1.083       .  S
C241        C242   1.414   1_565  A
C242        F246   1.357       .  S
C243        C248   1.406       .  A
C243        C252   1.404       .  A
C248        C249   1.406       .  A
C248        F253   1.357       .  S
C249        C250   1.410       .  A
C249        H254   1.082       .  S
C250        C251   1.413       .  A
C251        C252   1.405       .  A
C251        F255   1.358       .  S
C252        H256   1.082       .  S
C257        C258   1.405       .  A
C257        C262   1.399   1_455  A
C257        H267   1.083       .  S
C258        C263   1.486       .  S
C258        C259   1.406       .  A
C259        C260   1.405       .  A
C259        F264   1.357       .  S
C260        C261   1.406   1_455  A
C260        H265   1.083       .  S
C261        C262   1.404       .  A
C262        F266   1.358       .  S
C263        C268   1.408       .  A
C263        C272   1.401       .  A
C268        C269   1.411       .  A
C268        F273   1.357       .  S
C269        C270   1.409   1_565  A
C269        H274   1.080       .  S
C270        C271   1.409       .  A
C271        C272   1.394   1_545  A
C271        F275   1.358       .  S
C272        H276   1.081   1_565  S
C277        C278   1.405       .  A
C277        C282   1.398       .  A
C277        H287   1.082   1_556  S
C278        C283   1.485   1_546  S
C278        C279   1.408       .  A
C279        C280   1.398       .  A
C279        F284   1.358   1_545  S
C280        C281   1.405       .  A
C280        H285   1.082       .  S
C281        C282   1.408       .  A
C282        F286   1.358       .  S
C283        C288   1.408   1_565  A
C283        C292   1.404       .  A
C288        C289   1.400   1_545  A
C288        F293   1.357       .  S
C289        C290   1.405       .  A
C289        H294   1.082   1_565  S
C290        C291   1.409       .  A
C291        C292   1.396       .  A
C291        F295   1.358       .  S
C292        H296   1.082   1_554  S
C297        C298   1.405       .  A
C297        C302   1.401       .  A
C297        H307   1.083       .  S
C298        C303   1.478   1_554  S
C298        C299   1.403       .  A
C299        C300   1.394       .  A
C299        F304   1.357       .  S
C300        C301   1.405       .  A
C300        H305   1.083       .  S
C301        C302   1.409       .  A
C302        F306   1.358       .  S
C303        C308   1.407       .  A
C303        C312   1.399       .  A
C308        C309   1.399       .  A
C308        F313   1.357       .  S
C309        C310   1.404       .  A
C309        H314   1.082       .  S
C310        C311   1.416       .  A
C311        C312   1.396       .  A
C311        F315   1.358       .  S
C312        H316   1.083   1_556  S
C317        C318   1.402       .  A
C317        C322   1.393       .  A
C317        H327   1.084       .  S
C318        C323   1.487       .  S
C318        C319   1.408       .  A
C319        C320   1.405       .  A
C319        F324   1.357       .  S
C320        C321   1.409       .  A
C320        H325   1.083       .  S
C321        C322   1.411       .  A
C322        F326   1.357       .  S
C323        C328   1.405       .  A
C323        C332   1.410       .  A
C328        C329   1.389       .  A
C328        F333   1.358       .  S
C329        C330   1.404       .  A
C329        H334   1.084       .  S
C330        C331   1.406       .  A
C331        C332   1.408       .  A
C331        F335   1.357       .  S
C332        H336   1.083       .  S
C337        C338   1.409       .  A
C337        C342   1.407       .  A
C337        H347   1.082       .  S
C338        C343   1.498       .  S
C338        C339   1.410       .  A
C339        C340   1.395   1_545  A
C339        F344   1.358   1_545  S
C340        C341   1.405       .  A
C340        H345   1.083       .  S
C341        C342   1.411   1_565  A
C342        F346   1.357       .  S
C343        C348   1.411       .  A
C343        C352   1.408       .  A
C348        C349   1.405       .  A
C348        F353   1.357       .  S
C349        C350   1.407   1_655  A
C349        H354   1.083       .  S
C350        C351   1.406       .  A
C351        C352   1.399   1_455  A
C351        F355   1.358       .  S
C352        H356   1.083       .  S
C357        C358   1.401   1_545  A
C357        C362   1.394       .  A
C357        H367   1.083       .  S
C358        C363   1.488       .  S
C358        C359   1.408       .  A
C359        C360   1.409       .  A
C359        F364   1.357       .  S
C360        C361   1.409   1_565  A
C360        H365   1.082       .  S
C361        C362   1.411       .  A
C362        F366   1.358       .  S
C363        C368   1.407       .  A
C363        C372   1.404       .  A
C368        C369   1.406       .  A
C368        F373   1.357       .  S
C369        C370   1.408       .  A
C369        H374   1.082       .  S
C370        C371   1.409       .  A
C371        C372   1.398       .  A
C371        F375   1.358       .  S
C372        H376   1.083       .  S
C377        C378   1.408       .  A
C377        C382   1.404       .  A
C377        H387   1.083       .  S
C378        C383   1.499       .  S
C378        C379   1.412       .  A
C379        C380   1.402       .  A
C379        F384   1.357       .  S
C380        C381   1.403       .  A
C380        H385   1.084       .  S
C381        C382   1.406       .  A
C382        F386   1.358       .  S
C383        C388   1.413       .  A
C383        C392   1.403       .  A
C388        C389   1.409       .  A
C388        F393   1.357       .  S
C389        C390   1.406       .  A
C389        H394   1.082       .  S
C390        C391   1.414       .  A
C391        C392   1.397       .  A
C391        F395   1.358       .  S
C392        H396   1.082       .  S
C397        C398   1.407       .  A
C397        C402   1.399       .  A
C397        H407   1.083       .  S
C398        C403   1.489       .  S
C398        C399   1.409       .  A
C399        C400   1.398       .  A
C399        F404   1.357       .  S
C400        C401   1.402       .  A
C400        H405   1.083       .  S
C401        C402   1.405       .  A
C402        F406   1.358       .  S
C403        C408   1.405       .  A
C403        C412   1.410       .  A
C408        C409   1.392       .  A
C408        F413   1.358       .  S
C409        C410   1.410       .  A
C409        H414   1.084       .  S
C410        C411   1.405       .  A
C411        C412   1.403       .  A
C411        F415   1.357       .  S
C412        H416   1.084       .  S
C417        C418   1.405       .  A
C417        C422   1.402       .  A
C417        H427   1.081       .  S
C418        C423   1.488   1_556  S
C418        C419   1.407       .  A
C419        C420   1.397       .  A
C419        F424   1.358       .  S
C420        C421   1.408       .  A
C420        H425   1.081       .  S
C421        C422   1.410       .  A
C422        F426   1.357       .  S
C423        C428   1.410       .  A
C423        C432   1.401       .  A
C428        C429   1.405       .  A
C428        F433   1.357       .  S
C429        C430   1.407       .  A
C429        H434   1.084       .  S
C430        C431   1.412       .  A
C431        C432   1.393       .  A
C431        F435   1.358       .  S
C432        H436   1.084       .  S
C437        C438   1.406       .  A
C437        C442   1.403       .  A
C437        H447   1.083       .  S
C438        C443   1.479       .  S
C438        C439   1.401       .  A
C439        C440   1.393       .  A
C439        F444   1.358       .  S
C440        C441   1.408       .  A
C440        H445   1.083       .  S
C441        C442   1.410       .  A
C442        F446   1.357       .  S
C443        C448   1.407       .  A
C443        C452   1.402       .  A
C448        C449   1.401       .  A
C448        F453   1.357       .  S
C449        C450   1.404       .  A
C449        H454   1.083       .  S
C450        C451   1.407       .  A
C451        C452   1.394       .  A
C451        F455   1.358       .  S
C452        H456   1.083       .  S
C457        C458   1.411       .  A
C457        C462   1.405       .  A
C457        H467   1.084       .  S
C458        C463   1.498       .  S
C458        C459   1.407       .  A
C459        C460   1.399       .  A
C459        F464   1.357       .  S
C460        C461   1.409       .  A
C460        H465   1.084       .  S
C461        C462   1.407       .  A
C462        F466   1.357       .  S
C463        C468   1.406       .  A
C463        C472   1.412       .  A
C468        C469   1.397       .  A
C468        F473   1.357       .  S
C469        C470   1.409       .  A
C469        H474   1.084       .  S
C470        C471   1.406       .  A
C471        C472   1.407       .  A
C471        F475   1.357       .  S
C472        H476   1.083       .  S
C477        C478   1.404       .  A
C477        C482   1.399       .  A
C477        H487   1.083       .  S
C478        C483   1.485   1_455  S
C478        C479   1.406       .  A
C479        C480   1.399       .  A
C479        F484   1.358       .  S
C480        C481   1.408       .  A
C480        H485   1.083       .  S
C481        C482   1.409       .  A
C482        F486   1.357       .  S
C483        C488   1.408       .  A
C483        C492   1.404       .  A
C488        C489   1.399       .  A
C488        F493   1.357       .  S
C489        C490   1.403       .  A
C489        H494   1.086       .  S
C490        C491   1.409       .  A
C491        C492   1.399       .  A
C491        F495   1.358       .  S
C492        H496   1.086   1_655  S
C497        C498   1.406       .  A
C497        C502   1.399       .  A
C497        H507   1.084       .  S
C498        C503   1.494       .  S
C498        C499   1.412       .  A
C499        C500   1.405       .  A
C499        F504   1.357       .  S
C500        C501   1.403       .  A
C500        H505   1.084       .  S
C501        C502   1.406       .  A
C502        F506   1.358       .  S
C503        C508   1.409       .  A
C503        C512   1.407       .  A
C508        C509   1.396       .  A
C508        F513   1.357       .  S
C509        C510   1.406       .  A
C509        H514   1.084       .  S
C510        C511   1.411       .  A
C511        C512   1.405       .  A
C511        F515   1.357       .  S
C512        H516   1.083       .  S
C517        C518   1.400       .  A
C517        C522   1.399   1_455  A
C517        H527   1.084       .  S
C518        C523   1.473       .  S
C518        C519   1.404       .  A
C519        C520   1.398   1_455  A
C519        F524   1.357       .  S
C520        C521   1.406       .  A
C520        H525   1.084       .  S
C521        C522   1.412       .  A
C522        F526   1.358       .  S
C523        C528   1.404       .  A
C523        C532   1.400       .  A
C528        C529   1.405       .  A
C528        F533   1.357       .  S
C529        C530   1.407       .  A
C529        H534   1.083       .  S
C530        C531   1.406       .  A
C531        C532   1.392       .  A
C531        F535   1.358       .  S
C532        H536   1.084       .  S
C537        C538   1.411       .  A
C537        C542   1.411       .  A
C537        H547   1.082       .  S
C538        C543   1.497       .  S
C538        C539   1.405       .  A
C539        C540   1.396       .  A
C539        F544   1.358       .  S
C540        C541   1.411       .  A
C540        H545   1.082       .  S
C541        C542   1.409       .  A
C542        F546   1.357       .  S
C543        C548   1.409       .  A
C543        C552   1.406       .  A
C548        C549   1.406       .  A
C548        F553   1.357       .  S
C549        C550   1.410       .  A
C549        H554   1.083       .  S
C550        C551   1.411       .  A
C551        C552   1.401       .  A
C551        F555   1.357       .  S
C552        H556   1.083       .  S
C557        C558   1.405       .  A
C557        C562   1.397       .  A
C557        H567   1.082       .  S
C558        C563   1.477       .  S
C558        C559   1.406       .  A
C559        C560   1.391       .  A
C559        F564   1.358       .  S
C560        C561   1.404       .  A
C560        H565   1.083       .  S
C561        C562   1.406       .  A
C562        F566   1.357       .  S
C563        C568   1.406       .  A
C563        C572   1.403       .  A
C568        C569   1.396       .  A
C568        F573   1.358       .  S
C569        C570   1.405       .  A
C569        H574   1.084       .  S
C570        C571   1.407       .  A
C571        C572   1.392       .  A
C571        F575   1.358       .  S
C572        H576   1.084       .  S
C577        C578   1.404       .  A
C577        C582   1.402       .  A
C577        H587   1.084       .  S
C578        C583   1.474       .  S
C578        C579   1.402       .  A
C579        C580   1.393       .  A
C579        F584   1.358       .  S
C580        C581   1.405       .  A
C580        H585   1.084       .  S
C581        C582   1.407       .  A
C582        F586   1.357       .  S
C583        C588   1.400       .  A
C583        C592   1.404       .  A
C588        C589   1.392       .  A
C588        F593   1.358       .  S
C589        C590   1.409       .  A
C589        H594   1.083       .  S
C590        C591   1.410       .  A
C591        C592   1.402       .  A
C591        F595   1.357       .  S
C592        H596   1.083       .  S
C597        C598   1.406       .  A
C597        C602   1.403       .  A
C597        H607   1.085       .  S
C598        C603   1.482   1_554  S
C598        C599   1.403       .  A
C599        C600   1.394       .  A
C599        F604   1.358       .  S
C600        C601   1.408       .  A
C600        H605   1.085       .  S
C601        C602   1.409       .  A
C602        F606   1.357       .  S
C603        C608   1.405       .  A
C603        C612   1.404       .  A
C608        C609   1.397       .  A
C608        F613   1.358       .  S
C609        C610   1.409       .  A
C609        H614   1.081       .  S
C610        C611   1.409       .  A
C611        C612   1.401       .  A
C611        F615   1.357       .  S
C612        H616   1.081       .  S
C617        C618   1.404       .  A
C617        C622   1.405       .  A
C617        H627   1.083       .  S
C618        C623   1.487       .  S
C618        C619   1.408       .  A
C619        C620   1.396   1_655  A
C619        F624   1.358       .  S
C620        C621   1.405       .  A
C620        H625   1.084       .  S
C621        C622   1.412   1_455  A
C622        F626   1.357       .  S
C623        C628   1.404       .  A
C623        C632   1.409       .  A
C628        C629   1.389       .  A
C628        F633   1.358       .  S
C629        C630   1.405       .  A
C629        H634   1.084       .  S
C630        C631   1.410       .  A
C631        C632   1.411       .  A
C631        F635   1.357       .  S
C632        H636   1.083       .  S
C637        C638   1.408       .  A
C637        C642   1.399       .  A
C637        H647   1.082       .  S
C638        C643   1.496       .  S
C638        C639   1.409       .  A
C639        C640   1.404       .  A
C639        F644   1.357       .  S
C640        C641   1.408       .  A
C640        H645   1.082       .  S
C641        C642   1.407       .  A
C642        F646   1.358       .  S
C643        C648   1.407       .  A
C643        C652   1.410       .  A
C648        C649   1.393       .  A
C648        F653   1.358       .  S
C649        C650   1.406       .  A
C649        H654   1.083       .  S
C650        C651   1.411       .  A
C651        C652   1.409       .  A
C651        F655   1.357       .  S
C652        H656   1.082       .  S
