geometry optimzed in LAMMPS
_audit_creation_date              2020-12-01 
_audit_creation_method            'lammps2cif' 
_symmetry_space_group_name_H-M    'P1' 
_symmetry_Int_Tables_number       1 
_symmetry_cell_setting            triclinic 
loop_ 
_symmetry_equiv_pos_as_xyz 
  x,y,z 
_cell_length_a                    20.92200982 
_cell_length_b                    86.07636776378399 
_cell_length_c                    43.731044914373 
_cell_angle_alpha                 90.09763279771059 
_cell_angle_beta                  89.94956900267869 
_cell_angle_gamma                 89.99615536950563 
loop_ 
_atom_site_label 
_atom_site_type_symbol 
_atom_site_fract_x 
_atom_site_fract_y 
_atom_site_fract_z 
_atom_site_charge 
O1          O  0.98507334  0.95658582  0.48088875    -0.72900
O2          O  0.03281348  0.91209972  0.48312343    -0.73800
O3          O  0.99780569  0.93409575  0.52790433    -0.62500
O4          O  0.02562099  0.93463803  0.43598408    -0.70900
O5          O  0.12649424  0.94117045  0.44442487    -0.70400
O6          O  0.09957712  0.94044287  0.53396301    -0.61700
O7          O  0.13500165  0.91796462  0.48995186    -0.74200
O8          O  0.08568071  0.96357705  0.48837867    -0.73000
Cu9        Cu  0.00677975  0.93416471  0.48166050     1.04600
Cu10       Cu  0.11518003  0.94105729  0.48936558     1.04300
C11         C  0.02670418  0.96720061  0.48467628     0.93300
C12         C  0.09043563  0.90783847  0.48720625     0.92500
C13         C  0.04547565  0.93700395  0.54542679     0.84600
C14         C  0.08173786  0.93776713  0.42588343     0.90900
O15         O  0.19778070  0.83689012  0.48413598    -0.72900
O16         O  0.23785573  0.79188571  0.48476483    -0.73800
O17         O  0.19955819  0.81325429  0.43875792    -0.62500
O18         O  0.23126110  0.81521966  0.53035412    -0.70900
O19         O  0.12865604  0.80999305  0.53768639    -0.70400
O20         O  0.09751424  0.80820882  0.44818671    -0.61700
O21         O  0.13628313  0.78604079  0.49310368    -0.74200
O22         O  0.09533202  0.83209248  0.49273581    -0.73000
Cu23       Cu  0.22015402  0.81448801  0.48416692     1.04600
Cu24       Cu  0.11091400  0.80887006  0.49318750     1.04300
C25         C  0.14099651  0.84177224  0.48839012     0.93300
C26         C  0.19451299  0.78176853  0.48931081     0.92500
C27         C  0.14267399  0.81057683  0.42919266     0.84600
C28         C  0.18390147  0.81294109  0.54843595     0.90900
O29         O  0.09567276  0.94029002  0.27716258    -0.72900
O30         O  0.12777369  0.93916542  0.18786923    -0.73800
O31         O  0.09266158  0.91675647  0.23187459    -0.62500
O32         O  0.13625031  0.96268214  0.23324851    -0.70900
O33         O  0.23707018  0.95642898  0.24253856    -0.70400
O34         O  0.19494912  0.91151178  0.23979589    -0.61700
O35         O  0.23026332  0.93384791  0.19533038    -0.74200
O36         O  0.19663137  0.93428999  0.28671556    -0.73000
Cu37       Cu  0.10957424  0.93995356  0.23227431     1.04600
Cu38       Cu  0.21827211  0.93383941  0.24142326     1.04300
C39         C  0.13990605  0.93725609  0.29622348     0.93300
C40         C  0.18320926  0.93630486  0.17721165     0.92500
C41         C  0.13783472  0.90686817  0.23550130     0.84600
C42         C  0.19441686  0.96672974  0.23798409     0.90900
O43         O  0.12619499  0.80692909  0.28094782    -0.72900
O44         O  0.09667470  0.80806145  0.19133292    -0.73800
O45         O  0.13385831  0.83041087  0.23536096    -0.62500
O46         O  0.08361961  0.78478878  0.23667368    -0.70900
O47         O  0.98350382  0.79194979  0.24506044    -0.70400
O48         O  0.03202504  0.83637777  0.24287117    -0.61700
O49         O  0.99514032  0.81445448  0.19825930    -0.74200
O50         O  0.02579076  0.81370438  0.28984666    -0.73000
Cu51       Cu  0.11364202  0.80729353  0.23587874     1.04600
Cu52       Cu  0.00566605  0.81432925  0.24436540     1.04300
C53         C  0.08169099  0.81026262  0.29976759     0.93300
C54         C  0.04206939  0.81145118  0.18033780     0.92500
C55         C  0.08960223  0.84060654  0.23842714     0.84600
C56         C  0.02460774  0.78126824  0.24069415     0.90900
O57         O  0.09713520  0.44004874  0.77951479    -0.72900
O58         O  0.12773823  0.43914523  0.69009952    -0.73800
O59         O  0.09493872  0.41656964  0.73416620    -0.62500
O60         O  0.13551850  0.46266890  0.73548480    -0.70900
O61         O  0.23696505  0.45678621  0.74411509    -0.70400
O62         O  0.19748621  0.41169280  0.74217888    -0.61700
O63         O  0.23046095  0.43401138  0.69719326    -0.74200
O64         O  0.19880600  0.43464330  0.78885052    -0.73000
Cu65       Cu  0.11031977  0.43982627  0.73458323     1.04600
Cu66       Cu  0.21951237  0.43411824  0.74340240     1.04300
C67         C  0.14187467  0.43727476  0.79845944     0.93300
C68         C  0.18304870  0.43636740  0.67921807     0.92500
C69         C  0.14069878  0.40684126  0.73784912     0.84600
C70         C  0.19357317  0.46693222  0.73978808     0.90900
O71         O  0.09993982  0.30833566  0.68820671    -0.72900
O72         O  0.12569713  0.30694471  0.77805309    -0.73800
O73         O  0.08585453  0.28486435  0.73341510    -0.62500
O74         O  0.13476771  0.33057061  0.73310453    -0.70900
O75         O  0.03241422  0.33632882  0.73958550    -0.70400
O76         O  0.98513877  0.29177050  0.74098326    -0.61700
O77         O  0.02479066  0.31353212  0.78618760    -0.74200
O78         O  0.99795691  0.31449216  0.69422213    -0.73000
Cu79       Cu  0.11507593  0.30742624  0.73297295     1.04600
Cu80       Cu  0.00654942  0.31422548  0.74052269     1.04300
C81         C  0.04582062  0.31171873  0.67669031     0.93300
C82         C  0.08044571  0.31017228  0.79651900     0.92500
C83         C  0.02696600  0.28118588  0.73726988     0.84600
C84         C  0.09010351  0.34067072  0.73600384     0.90900
O85         O  0.98436315  0.45652396  0.98290595    -0.72900
O86         O  0.03092074  0.41200073  0.98420698    -0.73800
O87         O  0.99558618  0.43380173  0.02962807    -0.62500
O88         O  0.02564322  0.43482962  0.93773678    -0.70900
O89         O  0.12620274  0.44133513  0.94687885    -0.70400
O90         O  0.09737355  0.43996935  0.03622381    -0.61700
O91         O  0.13297314  0.41767583  0.99167678    -0.74200
O92         O  0.08472677  0.46347468  0.99121521    -0.73000
Cu93       Cu  0.00558653  0.43410658  0.98331861     1.04600
Cu94       Cu  0.11381379  0.44086865  0.99173839     1.04300
C95         C  0.02587715  0.46712023  0.98709545     0.93300
C96         C  0.08842463  0.40759692  0.98809829     0.92500
C97         C  0.04298292  0.43658886  0.04741765     0.84600
C98         C  0.08196648  0.43805338  0.92798385     0.90900
O99         O  0.12361935  0.30895668  0.03443600    -0.72900
O100        O  0.09340832  0.30783604  0.94489169    -0.73800
O101        O  0.13236869  0.28532584  0.98906360    -0.62500
O102        O  0.09030353  0.33137914  0.99015203    -0.70900
O103        O  0.19277778  0.33649382  0.98232683    -0.70400
O104        O  0.23373529  0.29141901  0.98070103    -0.61700
O105        O  0.19524481  0.31332047  0.93587536    -0.74200
O106        O  0.22622291  0.31431035  0.02743047    -0.73000
Cu107      Cu  0.10640028  0.30815292  0.98988943     1.04600
Cu108      Cu  0.21555135  0.31406486  0.98126917     1.04300
C109        C  0.17869191  0.31192168  0.04535035     0.93300
C110        C  0.13863967  0.31050379  0.92610410     0.92500
C111        C  0.19060228  0.28117639  0.98477585     0.84600
C112        C  0.13571091  0.34121120  0.98657133     0.90900
O113        O  0.10925774  0.18553157  0.53552032    -0.72900
O114        O  0.07568823  0.18398528  0.44415623    -0.73800
O115        O  0.11146453  0.16220530  0.48948493    -0.62500
O116        O  0.06872105  0.20717432  0.49038451    -0.70900
O117        O  0.16950121  0.21341880  0.48092190    -0.70400
O118        O  0.21362618  0.16754703  0.48124932    -0.61700
O119        O  0.17799431  0.18938253  0.43632379    -0.74200
O120        O  0.21031029  0.19144231  0.52578368    -0.73000
Cu121      Cu  0.08773537  0.18455324  0.49023299     1.04600
Cu122      Cu  0.19635445  0.19068609  0.48079120     1.04300
C123        C  0.16596247  0.18855317  0.54493592     0.93300
C124        C  0.12264882  0.18625750  0.42585031     0.92500
C125        C  0.16870681  0.15762851  0.48519113     0.84600
C126        C  0.11129161  0.21747441  0.48554717     0.90900
O127        O  0.22145867  0.03558043  0.48359871    -0.72900
O128        O  0.17397659  0.08130404  0.48218425    -0.73800
O129        O  0.20948584  0.05881955  0.43814187    -0.62500
O130        O  0.18047653  0.05792116  0.52747885    -0.70900
O131        O  0.28126588  0.06432375  0.53637894    -0.70400
O132        O  0.31126330  0.06506590  0.44442451    -0.61700
O133        O  0.27597768  0.08704768  0.48962215    -0.74200
O134        O  0.32215061  0.04240363  0.49139149    -0.73000
Cu135      Cu  0.19289942  0.05816413  0.48261738     1.04600
Cu136      Cu  0.30125200  0.06489930  0.49076472     1.04300
C137        C  0.28024733  0.03185291  0.48752357     0.93300
C138        C  0.21843318  0.09140887  0.48559482     0.92500
C139        C  0.26378328  0.06214565  0.42677324     0.84600
C140        C  0.22500202  0.06115450  0.54626981     0.90900
O141        O  0.10442035  0.06389673  0.68498702    -0.72900
O142        O  0.07300541  0.06421295  0.77677296    -0.73800
O143        O  0.10764687  0.08663674  0.73228875    -0.62500
O144        O  0.06461399  0.04167878  0.72928818    -0.70900
O145        O  0.16596769  0.03543846  0.73719943    -0.70400
O146        O  0.20994639  0.08120687  0.73989760    -0.61700
O147        O  0.17519149  0.05842740  0.78326092    -0.74200
O148        O  0.20606833  0.05820077  0.69396418    -0.73000
Cu149      Cu  0.08379945  0.06429623  0.73050623     1.04600
Cu150      Cu  0.19272768  0.05808598  0.73882236     1.04300
C151        C  0.16116694  0.06115512  0.67522744     0.93300
C152        C  0.12043574  0.06143124  0.79451363     0.92500
C153        C  0.16496292  0.09115866  0.73654316     0.84600
C154        C  0.10762598  0.03138184  0.73312121     0.90900
O155        O  0.30822633  0.18317322  0.77662320    -0.72900
O156        O  0.27967743  0.18468341  0.68463954    -0.73800
O157        O  0.32122751  0.20606796  0.73022447    -0.62500
O158        O  0.27237080  0.16162830  0.73094393    -0.70900
O159        O  0.17063476  0.16754165  0.73873636    -0.70400
O160        O  0.22085058  0.21316053  0.73816785    -0.61700
O161        O  0.17906192  0.19120155  0.69367569    -0.74200
O162        O  0.20673846  0.18969696  0.78316668    -0.73000
Cu163      Cu  0.29890599  0.18368141  0.73029896     1.04600
Cu164      Cu  0.19083506  0.19065565  0.73864315     1.04300
C165        C  0.26085852  0.18608588  0.79438133     0.93300
C166        C  0.22365181  0.18809785  0.67479563     0.92500
C167        C  0.27985635  0.21672270  0.73425723     0.84600
C168        C  0.21478614  0.15735655  0.73523769     0.90900
O169        O  0.30163957  0.56468553  0.94854645    -0.72900
O170        O  0.27261665  0.56353697  0.04025748    -0.73800
O171        O  0.31430018  0.54197013  0.99504673    -0.62500
O172        O  0.26531359  0.58635859  0.99376170    -0.70900
O173        O  0.16335740  0.58035470  0.98675655    -0.70400
O174        O  0.21410036  0.53481030  0.98691390    -0.61700
O175        O  0.17218924  0.55669968  0.03166735    -0.74200
O176        O  0.20003370  0.55830133  0.94195065    -0.73000
Cu177      Cu  0.29195834  0.56434074  0.99471756     1.04600
Cu178      Cu  0.18389271  0.55728099  0.98660408     1.04300
C179        C  0.25441116  0.56179003  0.93076899     0.93300
C180        C  0.21686809  0.56004423  0.05033890     0.92500
C181        C  0.27311561  0.53129319  0.99085884     0.84600
C182        C  0.20752203  0.59055452  0.98990923     0.90900
O183        O  0.06832915  0.68363999  0.94964566    -0.72900
O184        O  0.09928239  0.68463075  0.04124910    -0.73800
O185        O  0.06130726  0.70656182  0.99627308    -0.62500
O186        O  0.10176245  0.66147212  0.99477048    -0.70900
O187        O  0.20417304  0.66654763  0.98665837    -0.70400
O188        O  0.16291005  0.71246095  0.98795427    -0.61700
O189        O  0.20130225  0.68990849  0.03217921    -0.74200
O190        O  0.17096237  0.68893746  0.94253535    -0.73000
Cu191      Cu  0.07908305  0.68390252  0.99581186     1.04600
Cu192      Cu  0.18833852  0.68968957  0.98710139     1.04300
C193        C  0.11581223  0.68598590  0.93167791     0.93300
C194        C  0.15603820  0.68728251  0.05099027     0.92500
C195        C  0.10478779  0.71670531  0.99206658     0.84600
C196        C  0.15875686  0.65674381  0.99029887     0.90900
O197        O  0.09938432  0.56329873  0.18937325    -0.72900
O198        O  0.06734616  0.56477381  0.28091506    -0.73800
O199        O  0.10098422  0.58663087  0.23538897    -0.62500
O200        O  0.06063330  0.54168892  0.23463750    -0.70900
O201        O  0.16194691  0.53560249  0.24288902    -0.70400
O202        O  0.20332326  0.58176263  0.24401423    -0.61700
O203        O  0.16978870  0.55936927  0.28824679    -0.74200
O204        O  0.20131560  0.55811660  0.19871721    -0.73000
Cu205      Cu  0.07858852  0.56426594  0.23475198     1.04600
Cu206      Cu  0.18766865  0.55848587  0.24372196     1.04300
C207        C  0.15623795  0.56058880  0.17976903     0.93300
C208        C  0.11463255  0.56247018  0.29898306     0.92500
C209        C  0.15761323  0.59148560  0.24007363     0.84600
C210        C  0.10367758  0.53144741  0.23866973     0.90900
O211        O  0.16209904  0.66780162  0.24479205    -0.72900
O212        O  0.21195171  0.71348018  0.24272213    -0.73800
O213        O  0.17115871  0.69100339  0.19895097    -0.62500
O214        O  0.19718083  0.69045000  0.28875632    -0.70900
O215        O  0.29902118  0.68412338  0.28286730    -0.70400
O216        O  0.27175761  0.68416957  0.19076537    -0.61700
O217        O  0.31235839  0.70631905  0.23520187    -0.74200
O218        O  0.26437848  0.66191046  0.23841845    -0.73000
Cu219      Cu  0.18207756  0.69094627  0.24400671     1.04600
Cu220      Cu  0.29039043  0.68393499  0.23652853     1.04300
C221        C  0.20670232  0.65765226  0.24227506     0.93300
C222        C  0.27097986  0.71701271  0.23874516     0.92500
C223        C  0.21604334  0.68752511  0.18046201     0.84600
C224        C  0.25121661  0.68707243  0.30034128     0.90900
O225        O  0.26704460  0.94010410  0.77800006    -0.72900
O226        O  0.29609903  0.93904318  0.68842777    -0.73800
O227        O  0.26325834  0.91666504  0.73276949    -0.62500
O228        O  0.30548705  0.96256258  0.73350466    -0.70900
O229        O  0.07287348  0.95658141  0.74104161    -0.70400
O230        O  0.36571158  0.91146180  0.74037308    -0.61700
O231        O  0.06569907  0.93349466  0.69492838    -0.74200
O232        O  0.03513150  0.93484423  0.78661835    -0.73000
Cu233      Cu  0.27946647  0.93981650  0.73296395     1.04600
Cu234      Cu  0.05524717  0.93393352  0.74110756     1.04300
C235        C  0.31225888  0.93736959  0.79672397     0.93300
C236        C  0.01804154  0.93579087  0.67708014     0.92500
C237        C  0.30852750  0.90680527  0.73630682     0.84600
C238        C  0.02956493  0.96673256  0.73654376     0.90900
O239        O  0.20089639  0.83646145  0.74240318    -0.72900
O240        O  0.15188977  0.79207658  0.74528312    -0.73800
O241        O  0.19316237  0.81410944  0.78970751    -0.62500
O242        O  0.16508742  0.81441945  0.69782638    -0.70900
O243        O  0.26655162  0.80781830  0.69160813    -0.70400
O244        O  0.29373089  0.80727017  0.78143253    -0.61700
O245        O  0.25213602  0.78478190  0.73773655    -0.74200
O246        O  0.30274941  0.83038123  0.73540594    -0.73000
Cu247      Cu  0.17426139  0.81445914  0.74409522     1.04600
Cu248      Cu  0.28230895  0.80729105  0.73633939     1.04300
C249        C  0.25865384  0.84062809  0.73828948     0.93300
C250        C  0.19305658  0.78132540  0.74177401     0.92500
C251        C  0.24890734  0.81077276  0.79995208     0.84600
C252        C  0.21254887  0.81139805  0.68020199     0.90900
O253        O  0.29423732  0.94105540  0.94481516    -0.72900
O254        O  0.26467940  0.94006638  0.03441070    -0.73800
O255        O  0.30134159  0.91764498  0.99043919    -0.62500
O256        O  0.25181788  0.96330795  0.98890306    -0.70900
O257        O  0.15156766  0.95625498  0.98060982    -0.70400
O258        O  0.19947643  0.91183890  0.98278153    -0.61700
O259        O  0.16307857  0.93375137  0.02755275    -0.74200
O260        O  0.19374312  0.93441262  0.93585176    -0.73000
Cu261      Cu  0.28155520  0.94077723  0.98984987     1.04600
Cu262      Cu  0.17348811  0.93386675  0.98136840     1.04300
C263        C  0.24986583  0.93771522  0.92597645     0.93300
C264        C  0.21008350  0.93668647  0.04545156     0.92500
C265        C  0.25692086  0.90751403  0.98716911     0.84600
C266        C  0.19288797  0.96689371  0.98483022     0.90900
O267        O  0.29045277  0.80909681  0.03782015    -0.72900
O268        O  0.26185749  0.80801461  0.94810732    -0.73800
O269        O  0.29973486  0.78551860  0.99267153    -0.62500
O270        O  0.25806931  0.83146568  0.99329866    -0.70900
O271        O  0.36088184  0.83650760  0.98619303    -0.70400
O272        O  0.07111570  0.79159701  0.98420754    -0.61700
O273        O  0.03286056  0.81352427  0.93925348    -0.74200
O274        O  0.06318802  0.81441027  0.03073883    -0.73000
Cu275      Cu  0.27396285  0.80829923  0.99320106     1.04600
Cu276      Cu  0.05274195  0.81422141  0.98466455     1.04300
C277        C  0.01568732  0.81198666  0.04862830     0.93300
C278        C  0.30728616  0.81084224  0.92950545     0.92500
C279        C  0.02793329  0.78140977  0.98867579     0.84600
C280        C  0.30371881  0.84124313  0.98997385     0.90900
O281        O  0.32848428  0.53592138  0.74285330    -0.72900
O282        O  0.03764190  0.58178435  0.74456689    -0.73800
O283        O  0.33597103  0.55941849  0.78837454    -0.62500
O284        O  0.03594152  0.55840493  0.69902595    -0.70900
O285        O  0.26741890  0.56391228  0.68953791    -0.70400
O286        O  0.23347216  0.56472419  0.78084899    -0.61700
O287        O  0.26873227  0.58696848  0.73612178    -0.74200
O288        O  0.22727364  0.54195024  0.73395394    -0.73000
Cu289      Cu  0.35463240  0.55867418  0.74396138     1.04600
Cu290      Cu  0.24567652  0.56457647  0.73477430     1.04300
C291        C  0.27040430  0.53174282  0.73830847     0.93300
C292        C  0.32570192  0.59167289  0.74066535     0.92500
C293        C  0.28050023  0.56229699  0.79899119     0.84600
C294        C  0.32428340  0.56111249  0.68005304     0.90900
O295        O  0.04689160  0.71376869  0.74349738    -0.72900
O296        O  0.32905731  0.66815518  0.74445879    -0.73800
O297        O  0.03257873  0.69035372  0.78870213    -0.62500
O298        O  0.00414133  0.69171499  0.69913282    -0.70900
O299        O  0.10436409  0.68475900  0.69030324    -0.70400
O300        O  0.13412683  0.68391367  0.78218847    -0.61700
O301        O  0.09765216  0.66212785  0.73715802    -0.74200
O302        O  0.14687024  0.70646835  0.73521952    -0.73000
Cu303      Cu  0.01631538  0.69125551  0.74412395     1.04600
Cu304      Cu  0.12423946  0.68412005  0.73590027     1.04300
C305        C  0.10597911  0.71721457  0.73938392     0.93300
C306        C  0.03992492  0.65790742  0.74107954     0.92500
C307        C  0.08677824  0.68684606  0.79994938     0.84600
C308        C  0.04849691  0.68824082  0.68035401     0.90900
O309        O  0.10677059  0.56415314  0.54026068    -0.72900
O310        O  0.13366767  0.56492925  0.44824095    -0.73800
O311        O  0.09875383  0.58677606  0.49333741    -0.62500
O312        O  0.14708434  0.54237107  0.49509784    -0.70900
O313        O  0.04665607  0.53523348  0.48759621    -0.70400
O314        O  0.33003740  0.58056514  0.48688220    -0.61700
O315        O  0.03192596  0.55854693  0.44226021    -0.74200
O316        O  0.33977507  0.55714379  0.53219969    -0.73000
Cu317      Cu  0.12507086  0.56475475  0.49453215     1.04600
Cu318      Cu  0.01678967  0.55773908  0.48701063     1.04300
C319        C  0.05113820  0.56073607  0.55059715     0.93300
C320        C  0.08596566  0.56202369  0.43073318     0.92500
C321        C  0.04102815  0.59100008  0.48950554     0.84600
C322        C  0.10572737  0.53169817  0.49128022     0.90900
O323        O  0.26193652  0.68469237  0.54189911    -0.72900
O324        O  0.23085178  0.68348746  0.45015071    -0.73800
O325        O  0.26507129  0.66149763  0.49554585    -0.62500
O326        O  0.22276989  0.70639027  0.49668363    -0.70900
O327        O  0.32423873  0.71248153  0.48871309    -0.70400
O328        O  0.03461855  0.66683080  0.48675367    -0.61700
O329        O  0.33327702  0.68903307  0.44313128    -0.74200
O330        O  0.36386922  0.68997058  0.53263205    -0.73000
Cu331      Cu  0.24160120  0.68382644  0.49639762     1.04600
Cu332      Cu  0.35068497  0.68974869  0.48765899     1.04300
C333        C  0.31875737  0.68739233  0.55153238     0.93300
C334        C  0.27827752  0.68598681  0.43221583     0.92500
C335        C  0.32198459  0.65677057  0.49100171     0.84600
C336        C  0.26588742  0.71662072  0.49266842     0.90900
O337        O  0.19840725  0.41242650  0.48424560    -0.72900
O338        O  0.14970946  0.45684661  0.48280798    -0.73800
O339        O  0.19216002  0.43529153  0.43772428    -0.62500
O340        O  0.16151305  0.43413853  0.52939915    -0.70900
O341        O  0.26306495  0.44049857  0.53629200    -0.70400
O342        O  0.29265840  0.44192483  0.44681235    -0.61700
O343        O  0.24985671  0.46396760  0.49117039    -0.74200
O344        O  0.30029547  0.41831664  0.49179624    -0.73000
Cu345      Cu  0.17195796  0.43447773  0.48321271     1.04600
Cu346      Cu  0.27998227  0.44144584  0.49175073     1.04300
C347        C  0.25598008  0.40815904  0.48845716     0.93300
C348        C  0.19088732  0.46751226  0.48708239     0.92500
C349        C  0.24836515  0.43859780  0.42795623     0.84600
C350        C  0.20854939  0.43702099  0.54731221     0.90900
O351        O  0.07298664  0.29237859  0.47980320    -0.72900
O352        O  0.02942019  0.33722103  0.48172815    -0.73800
O353        O  0.06513797  0.31520384  0.52674962    -0.62500
O354        O  0.03183280  0.31419437  0.43515280    -0.70900
O355        O  0.26444718  0.30844578  0.44522545    -0.70400
O356        O  0.96278353  0.30973109  0.53423584    -0.61700
O357        O  0.26208019  0.33216436  0.49035044    -0.74200
O358        O  0.97217120  0.28606233  0.48898404    -0.73000
Cu359      Cu  0.05338234  0.31493762  0.48052306     1.04600
Cu360      Cu  0.27890784  0.30891789  0.49003509     1.04300
C361        C  0.03045415  0.28204481  0.48431733     0.93300
C362        C  0.30736660  0.34200382  0.48639024     0.92500
C363        C  0.01795514  0.31280759  0.54489441     0.84600
C364        C  0.97503196  0.31122145  0.42577757     0.90900
O365        O  0.29127687  0.43900617  0.18981840    -0.72900
O366        O  0.26185943  0.44050496  0.27929172    -0.73800
O367        O  0.30271571  0.46264252  0.23506298    -0.62500
O368        O  0.25610206  0.41682863  0.23424115    -0.70900
O369        O  0.02534057  0.41127756  0.24207445    -0.70400
O370        O  0.07037609  0.45605125  0.24386627    -0.61700
O371        O  0.02948144  0.43428657  0.28868434    -0.74200
O372        O  0.06098629  0.43325030  0.19705014    -0.73000
Cu373      Cu  0.27448658  0.43998770  0.23436346     1.04600
Cu374      Cu  0.05009542  0.43352039  0.24323905     1.04300
C375        C  0.01374284  0.43582910  0.17908994     0.93300
C376        C  0.30637542  0.43750959  0.29822092     0.92500
C377        C  0.02809168  0.46647705  0.23973350     0.84600
C378        C  0.30088191  0.40681606  0.23768787     0.90900
O379        O  0.19526339  0.33599008  0.24013422    -0.72900
O380        O  0.15091637  0.29119933  0.24184801    -0.73800
O381        O  0.19123316  0.31312944  0.28683149    -0.62500
O382        O  0.16056193  0.31393520  0.19493234    -0.70900
O383        O  0.26264961  0.30809012  0.18818606    -0.70400
O384        O  0.29210210  0.30694162  0.27750356    -0.61700
O385        O  0.25176220  0.28466898  0.23326762    -0.74200
O386        O  0.29748347  0.33049851  0.23251484    -0.73000
Cu387      Cu  0.17090223  0.31374666  0.24125300     1.04600
Cu388      Cu  0.27945950  0.30731455  0.23263411     1.04300
C389        C  0.25263603  0.34049319  0.23608594     0.93300
C390        C  0.19323721  0.28078392  0.23747477     0.92500
C391        C  0.24774842  0.31006238  0.29648677     0.84600
C392        C  0.20799298  0.31123899  0.17706515     0.90900
O393        O  0.05084878  0.03497818  0.98380930    -0.72900
O394        O  0.00321883  0.08073849  0.98150608    -0.73800
O395        O  0.03793306  0.05808343  0.93769925    -0.62500
O396        O  0.01023407  0.05769238  0.02749183    -0.70900
O397        O  0.11163487  0.06387455  0.03583429    -0.70400
O398        O  0.14006060  0.06415158  0.94393359    -0.61700
O399        O  0.10550832  0.08646642  0.98841410    -0.74200
O400        O  0.15158798  0.04186325  0.99125809    -0.73000
Cu401      Cu  0.02203070  0.05761495  0.98242103     1.04600
Cu402      Cu  0.13071610  0.06429031  0.99016463     1.04300
C403        C  0.10973731  0.03128593  0.98769233     0.93300
C404        C  0.04799446  0.09081235  0.98426276     0.92500
C405        C  0.09237653  0.06133883  0.92636444     0.84600
C406        C  0.05547282  0.06082716  0.04597362     0.90900
O407        O  0.04088051  0.16677043  0.98115781    -0.72900
O408        O  0.99544707  0.21264854  0.98169211    -0.73800
O409        O  0.03653023  0.19049130  0.02612218    -0.62500
O410        O  0.00545601  0.18889725  0.93687253    -0.70900
O411        O  0.23642245  0.18330150  0.94434368    -0.70400
O412        O  0.26903851  0.18442058  0.03592677    -0.61700
O413        O  0.22834496  0.20623769  0.99099915    -0.74200
O414        O  0.27189201  0.16137967  0.98949645    -0.73000
Cu415      Cu  0.02305921  0.18995126  0.98122392     1.04600
Cu416      Cu  0.24786292  0.18365685  0.99053076     1.04300
C417        C  0.99582263  0.15686297  0.98497020     0.93300
C418        C  0.27084932  0.21655805  0.98626230     0.92500
C419        C  0.99235853  0.18747188  0.04526310     0.84600
C420        C  0.28370257  0.18565557  0.92625038     0.90900
O421        O  0.33423561  0.03517833  0.23947601    -0.72900
O422        O  0.04578120  0.08073726  0.23900071    -0.73800
O423        O  0.34560823  0.05918117  0.28389612    -0.62500
O424        O  0.04039661  0.05695239  0.19420274    -0.70900
O425        O  0.27191223  0.06337924  0.18552319    -0.70400
O426        O  0.24278775  0.06442948  0.27726298    -0.61700
O427        O  0.27615682  0.08637625  0.23191250    -0.74200
O428        O  0.23325428  0.04150228  0.23079236    -0.73000
Cu429      Cu  0.36141409  0.05787816  0.23922387     1.04600
Cu430      Cu  0.25247011  0.06408773  0.23106910     1.04300
C431        C  0.27580436  0.03117832  0.23538844     0.93300
C432        C  0.33358643  0.09094695  0.23542978     0.92500
C433        C  0.29071783  0.06222480  0.29498831     0.84600
C434        C  0.32800781  0.06023268  0.17541336     0.90900
O435        O  0.00435298  0.16694192  0.23882342    -0.72900
O436        O  0.05078702  0.21268945  0.23824401    -0.73800
O437        O  0.00947685  0.19052974  0.19385789    -0.62500
O438        O  0.04032182  0.18914947  0.28321345    -0.70900
O439        O  0.14222731  0.18324448  0.27591696    -0.70400
O440        O  0.11019843  0.18430151  0.18420876    -0.61700
O441        O  0.15142583  0.20611642  0.22923777    -0.74200
O442        O  0.10635233  0.16136965  0.23073606    -0.73000
Cu443      Cu  0.02276767  0.19007188  0.23876768     1.04600
Cu444      Cu  0.13112093  0.18357504  0.22968189     1.04300
C445        C  0.04901190  0.15691870  0.23511850     0.93300
C446        C  0.10929435  0.21654804  0.23389738     0.92500
C447        C  0.05359045  0.18739743  0.17473485     0.84600
C448        C  0.09520331  0.18589770  0.29403237     0.90900
C449        C  0.29526747  0.11846599  0.23572325    -0.21200
C450        C  0.34660932  0.10786451  0.23584910    -0.09300
C451        C  0.07635269  0.11341372  0.23634478     0.29600
C452        C  0.08704832  0.12942448  0.23609655    -0.21200
C453        C  0.03570255  0.14001573  0.23592456    -0.09300
C454        C  0.30606092  0.13448790  0.23572080     0.29600
F455        F  0.25508916  0.14423735  0.23535316    -0.19800
H456        H  0.24637746  0.11437676  0.23559098     0.18000
H457        H  0.13593936  0.13351443  0.23601002     0.18000
F458        F  0.12743617  0.10369804  0.23626497    -0.19800
C459        C  0.95925513  0.18739580  0.10033352    -0.21200
C460        C  0.00810567  0.18731894  0.07837183    -0.09300
C461        C  0.07229412  0.18700978  0.08840330     0.29600
C462        C  0.08674852  0.18694887  0.11963331    -0.21200
C463        C  0.03790240  0.18727470  0.14160244    -0.09300
C464        C  0.97370362  0.18741413  0.13155536     0.29600
F465        F  0.25800260  0.18794187  0.15187497    -0.19800
H466        H  0.24307771  0.18789620  0.09341196     0.18000
H467        H  0.13638017  0.18673580  0.12660661     0.18000
F468        F  0.12141269  0.18654587  0.06811599    -0.19800
C469        C  0.31094580  0.06435528  0.08911494    -0.21200
C470        C  0.04126060  0.06095594  0.07914814    -0.09300
C471        C  0.08807253  0.05719407  0.10084702     0.29600
C472        C  0.07261577  0.05683810  0.13198988    -0.21200
C473        C  0.34247843  0.06038695  0.14209840    -0.09300
C474        C  0.29573752  0.06425950  0.12029603     0.29600
F475        F  0.23555150  0.06812491  0.12901497    -0.19800
H476        H  0.27394331  0.06731873  0.07281749     0.18000
H477        H  0.10975848  0.05376774  0.14812221     0.18000
F478        F  0.14808503  0.05330376  0.09188690    -0.19800
C479        C  0.30576184  0.11298714  0.99007852    -0.21200
C480        C  0.03407069  0.10764485  0.98302911    -0.09300
C481        C  0.08263285  0.11845438  0.97608341     0.29600
C482        C  0.07000342  0.13439993  0.97672396    -0.21200
C483        C  0.00883807  0.13992161  0.98419983    -0.09300
C484        C  0.29320204  0.12892179  0.99097643     0.29600
F485        F  0.23355630  0.13361328  0.99899107    -0.19800
H486        H  0.26785383  0.10492940  0.99583840     0.18000
H487        H  0.10823824  0.14242360  0.97130318     0.18000
F488        F  0.14221457  0.11363763  0.96821323    -0.19800
C489        C  0.19182632  0.23707586  0.22476267    -0.21200
C490        C  0.12979340  0.23306284  0.23455845    -0.09300
C491        C  0.08952364  0.24485491  0.24571935     0.29600
C492        C  0.11089711  0.26024274  0.24681320    -0.21200
C493        C  0.17289432  0.26425879  0.23697184    -0.09300
C494        C  0.21321829  0.25246304  0.22587670     0.29600
F495        F  0.27280051  0.25577925  0.21547260    -0.19800
H496        H  0.22406429  0.22827641  0.21602110     0.18000
H497        H  0.07865765  0.26904249  0.25555404     0.18000
F498        F  0.02998899  0.24153608  0.25617943    -0.19800
C499        C  0.21444458  0.36801179  0.23509510    -0.21200
C500        C  0.26581041  0.35742181  0.23570780    -0.09300
C501        C  0.99544783  0.36322516  0.23787906     0.29600
C502        C  0.00606967  0.37924563  0.23867010    -0.21200
C503        C  0.28772325  0.38988293  0.23673154    -0.09300
C504        C  0.22507263  0.38404142  0.23555136     0.29600
F505        F  0.17396280  0.39374667  0.23519635    -0.19800
H506        H  0.16560290  0.36390273  0.23430659     0.18000
H507        H  0.05470662  0.38332549  0.24111885     0.18000
F508        F  0.04614602  0.35348956  0.24057418    -0.19800
C509        C  0.21439962  0.31148270  0.35153245    -0.21200
C510        C  0.26320718  0.31027053  0.32964865    -0.09300
C511        C  0.99418199  0.30932244  0.33967038     0.29600
C512        C  0.00835940  0.30975136  0.37089522    -0.21200
C513        C  0.29283202  0.31099398  0.39286812    -0.09300
C514        C  0.22876489  0.31175651  0.38277482     0.29600
F515        F  0.17976030  0.31299762  0.40300145    -0.19800
H516        H  0.16488015  0.31217840  0.34449246     0.18000
H517        H  0.05775498  0.30882578  0.37804226     0.18000
F518        F  0.04344278  0.30788191  0.31964150    -0.19800
C519        C  0.00697372  0.43824164  0.35310116    -0.21200
C520        C  0.29151338  0.43773402  0.33141313    -0.09300
C521        C  0.22757937  0.43780926  0.34185579     0.29600
C522        C  0.21392366  0.43807656  0.37315311    -0.21200
C523        C  0.26333132  0.43840378  0.39477703    -0.09300
C524        C  0.32727678  0.43833742  0.38434342     0.29600
F525        F  0.04252364  0.43928306  0.40436893    -0.19800
H526        H  0.05645784  0.43861357  0.34587634     0.18000
H527        H  0.16446080  0.43808595  0.38044839     0.18000
F528        F  0.17791107  0.43740395  0.32191819    -0.19800
C529        C  0.33179047  0.38581961  0.48302373    -0.21200
C530        C  0.27007774  0.39130491  0.48923338    -0.09300
C531        C  0.22102052  0.38046710  0.49517305     0.29600
C532        C  0.23341827  0.36452412  0.49424972    -0.21200
C533        C  0.29484165  0.35898126  0.48743574    -0.09300
C534        C  0.34419085  0.36985529  0.48195637     0.29600
F535        F  0.06921080  0.36504887  0.47483296    -0.19800
H536        H  0.03493487  0.39376140  0.47799459     0.18000
H537        H  0.19471474  0.35651128  0.49891285     0.18000
F538        F  0.16101257  0.38525091  0.50232271    -0.19800
C539        C  0.08429128  0.50334099  0.48344619    -0.21200
C540        C  0.12741908  0.51526357  0.49066564    -0.09300
C541        C  0.19191016  0.51133249  0.49642998     0.29600
C542        C  0.21220243  0.49587175  0.49495208    -0.21200
C543        C  0.16910050  0.48394644  0.48772601    -0.09300
C544        C  0.10460914  0.48788097  0.48191440     0.29600
F545        F  0.06078229  0.47685611  0.47460010    -0.19800
H546        H  0.03466423  0.50597637  0.47870717     0.18000
H547        H  0.26182662  0.49323929  0.49968769     0.18000
F548        F  0.23577779  0.52236745  0.50362431    -0.19800
C549        C  0.06311610  0.63455568  0.48262679    -0.21200
C550        C  0.33466406  0.63983087  0.49010167    -0.09300
C551        C  0.28567501  0.62895237  0.49614511     0.29600
C552        C  0.29830741  0.61300971  0.49523260    -0.21200
C553        C  0.35990171  0.60757561  0.48862672    -0.09300
C554        C  0.07563084  0.61862907  0.48191136     0.29600
F555        F  0.13545467  0.61383911  0.47442391    -0.19800
H556        H  0.10161607  0.64256774  0.47758026     0.18000
H557        H  0.26015370  0.60492010  0.50041517     0.18000
F558        F  0.22566154  0.63364522  0.50347104    -0.19800
C559        C  0.06261863  0.68339198  0.59404758    -0.21200
C560        C  0.33388492  0.68744406  0.58459283    -0.09300
C561        C  0.28829108  0.69182125  0.60650584     0.29600
C562        C  0.30457238  0.69219532  0.63752229    -0.21200
C563        C  0.03342977  0.68813521  0.64711731    -0.09300
C564        C  0.07868461  0.68350410  0.62511050     0.29600
F565        F  0.13816935  0.67890347  0.63349457    -0.19800
H566        H  0.09842878  0.67979387  0.57758264     0.18000
H567        H  0.26832652  0.69572398  0.65381279     0.18000
F568        F  0.22868268  0.69623166  0.59790490    -0.19800
C569        C  0.06832922  0.56468112  0.63699888    -0.21200
C570        C  0.33944099  0.56101625  0.64701336    -0.09300
C571        C  0.29291872  0.55712507  0.62525352     0.29600
C572        C  0.30839104  0.55689722  0.59416710    -0.21200
C573        C  0.03709059  0.56073964  0.58394050    -0.09300
C574        C  0.08368942  0.56466374  0.60581346     0.29600
F575        F  0.14381256  0.56863153  0.59717842    -0.19800
H576        H  0.10505965  0.56776130  0.65337260     0.18000
H577        H  0.27131057  0.55378433  0.57801384     0.18000
F578        F  0.23301938  0.55305680  0.63407476    -0.19800
C579        C  0.28686721  0.61917783  0.73906120    -0.21200
C580        C  0.33819364  0.60862865  0.74144590    -0.09300
C581        C  0.06674358  0.61447183  0.74515180     0.29600
C582        C  0.07715582  0.63048497  0.74529524    -0.21200
C583        C  0.02613767  0.64102679  0.74193852    -0.09300
C584        C  0.29733963  0.63522812  0.73934516     0.29600
F585        F  0.24661993  0.64493445  0.73636829    -0.19800
H586        H  0.23828342  0.61502479  0.73676994     0.18000
H587        H  0.12567204  0.63462537  0.74803360     0.18000
F588        F  0.11772170  0.60485178  0.74826861    -0.19800
C589        C  0.21525272  0.99527643  0.99145105    -0.21200
C590        C  0.17138228  0.98335281  0.98540557    -0.09300
C591        C  0.10656010  0.98733074  0.98061721     0.29600
C592        C  0.08679174  0.00285031  0.98173161    -0.21200
C593        C  0.13076708  0.01478222  0.98760703    -0.09300
C594        C  0.19550497  0.01078336  0.99257510     0.29600
F595        F  0.24023951  0.02180137  0.99853033    -0.19800
H596        H  0.26513985  0.99261471  0.99544118     0.18000
H597        H  0.03691448  0.00552287  0.97774078     0.18000
F598        F  0.06186510  0.97628896  0.97475428    -0.19800
C599        C  0.21877783  0.88006625  0.98677139    -0.21200
C600        C  0.27017543  0.89061249  0.98854462    -0.09300
C601        C  0.33249850  0.88473438  0.99158294     0.29600
C602        C  0.34279259  0.86868355  0.99231383    -0.21200
C603        C  0.29132708  0.85817304  0.99022761    -0.09300
C604        C  0.22900983  0.86406449  0.98767201     0.29600
F605        F  0.17792088  0.85441860  0.98536170    -0.19800
H606        H  0.17013060  0.88417221  0.98450897     0.18000
H607        H  0.05901077  0.86465867  0.99427044     0.18000
F608        F  0.05028252  0.89455665  0.99359538    -0.19800
C609        C  0.21345803  0.75287000  0.73428551    -0.21200
C610        C  0.17107225  0.76489323  0.74191684    -0.09300
C611        C  0.10690832  0.76106550  0.74877478     0.29600
C612        C  0.08604257  0.74563394  0.74764005    -0.21200
C613        C  0.12831225  0.73362043  0.73981784    -0.09300
C614        C  0.19261981  0.73743454  0.73319539     0.29600
F615        F  0.23572660  0.72631393  0.72542561    -0.19800
H616        H  0.26286275  0.75540969  0.72881848     0.18000
H617        H  0.03665007  0.74309343  0.75312080     0.18000
F618        F  0.06394508  0.77217793  0.75675884    -0.19800
C619        C  0.32506645  0.80720062  0.84352348    -0.21200
C620        C  0.26309606  0.81098023  0.83325609    -0.09300
C621        C  0.21640964  0.81500181  0.85504709     0.29600
C622        C  0.23127019  0.81487973  0.88624780    -0.21200
C623        C  0.29313756  0.81106338  0.89637266    -0.09300
C624        C  0.34006214  0.80729369  0.87467768     0.29600
F625        F  0.06906937  0.80335609  0.88333634    -0.19800
H626        H  0.36227301  0.80407762  0.82741215     0.18000
H627        H  0.19436364  0.81796560  0.90255880     0.18000
F628        F  0.15662127  0.81917981  0.84632102    -0.19800
C629        C  0.23561632  0.93309446  0.83964986    -0.21200
C630        C  0.29735961  0.93725429  0.82981857    -0.09300
C631        C  0.34298195  0.94158109  0.85171209     0.29600
C632        C  0.32687662  0.94178735  0.88277930    -0.21200
C633        C  0.26507073  0.93759365  0.89274257    -0.09300
C634        C  0.21963618  0.93311919  0.87073327     0.29600
F635        F  0.16003593  0.92859508  0.87913591    -0.19800
H636        H  0.19964777  0.92962849  0.82318512     0.18000
H637        H  0.36308610  0.94530731  0.89906351     0.18000
F638        F  0.07034877  0.94472567  0.84301558    -0.19800
C639        C  0.34674247  0.87923313  0.73690412    -0.21200
C640        C  0.29558357  0.88987799  0.73587493    -0.09300
C641        C  0.23282060  0.88411633  0.73487125     0.29600
C642        C  0.22178120  0.86813770  0.73542574    -0.21200
C643        C  0.27279015  0.85748199  0.73685183    -0.09300
C644        C  0.33565397  0.86320786  0.73729785     0.29600
F645        F  0.38635411  0.85340037  0.73865428    -0.19800
H646        H  0.39566774  0.88329573  0.73757621     0.18000
H647        H  0.17278734  0.86412454  0.73480230     0.18000
F648        F  0.18189204  0.89386438  0.73376883    -0.19800
C649        C  0.31680530  0.68316097  0.34756284    -0.21200
C650        C  0.25749923  0.68648205  0.33416369    -0.09300
C651        C  0.20425366  0.68904466  0.35347838     0.29600
C652        C  0.21092400  0.68850483  0.38528484    -0.21200
C653        C  0.27054900  0.68553929  0.39857519    -0.09300
C654        C  0.32347928  0.68272177  0.37934895     0.29600
F655        F  0.38170924  0.67931462  0.39121889    -0.19800
H656        H  0.35826573  0.68090362  0.33341210     0.18000
H657        H  0.16966048  0.69078950  0.39956593     0.18000
F658        F  0.14561345  0.69219697  0.34181407    -0.19800
C659        C  0.04664796  0.56033329  0.34578932    -0.21200
C660        C  0.10645522  0.56323307  0.33256990    -0.09300
C661        C  0.15901054  0.56632969  0.35182576     0.29600
C662        C  0.15191802  0.56605959  0.38360572    -0.21200
C663        C  0.09251169  0.56268427  0.39693783    -0.09300
C664        C  0.03953285  0.55999093  0.37757583     0.29600
F665        F  0.98075662  0.55684948  0.38916814    -0.19800
H666        H  0.00556032  0.55793060  0.33148835     0.18000
H667        H  0.19320396  0.56842674  0.39778702     0.18000
F668        F  0.21726737  0.56981327  0.33999367    -0.19800
C669        C  0.12950749  0.50317804  0.24542864    -0.21200
C670        C  0.08468441  0.51479326  0.23863936    -0.09300
C671        C  0.02097718  0.51032953  0.23232156     0.29600
C672        C  0.00303681  0.49469414  0.23295728    -0.21200
C673        C  0.04776422  0.48307734  0.23976659    -0.09300
C674        C  0.11151889  0.48751436  0.24604842     0.29600
F675        F  0.15680763  0.47678585  0.25295383    -0.19800
H676        H  0.17864499  0.50620402  0.25044903     0.18000
H677        H  0.28912845  0.49171688  0.22483378     0.18000
F678        F  0.97554466  0.52101081  0.22534725    -0.19800
C679        C  0.22994283  0.61413003  0.24924841    -0.21200
C680        C  0.16939470  0.60847177  0.24120277    -0.09300
C681        C  0.12013000  0.61923474  0.23479015     0.29600
C682        C  0.13190625  0.63521530  0.23604036    -0.21200
C683        C  0.19285583  0.64081233  0.24339181    -0.09300
C684        C  0.24169010  0.63008666  0.25040897     0.29600
F685        F  0.30085849  0.63498695  0.25874056    -0.19800
H686        H  0.26845365  0.60619780  0.25471987     0.18000
H687        H  0.09366005  0.64320957  0.23047640     0.18000
F688        F  0.06068527  0.61440718  0.22678422    -0.19800
C689        C  0.15327484  0.68290230  0.84692536    -0.21200
C690        C  0.09370787  0.68617909  0.83372519    -0.09300
C691        C  0.04076335  0.68876949  0.85320913     0.29600
C692        C  0.04795087  0.68833230  0.88496862    -0.21200
C693        C  0.10780732  0.68544977  0.89807249    -0.09300
C694        C  0.16045796  0.68256418  0.87870464     0.29600
F695        F  0.21887501  0.67920603  0.89042774    -0.19800
H696        H  0.19454861  0.68064760  0.83264012     0.18000
H697        H  0.00686567  0.69063773  0.89935560     0.18000
F698        F  0.98190126  0.69188753  0.84175873    -0.19800
C699        C  0.02459771  0.73775182  0.00125304    -0.21200
C700        C  0.08633261  0.73334961  0.99167652    -0.09300
C701        C  0.12828690  0.74489289  0.98101392     0.29600
C702        C  0.10864924  0.76041263  0.97999152    -0.21200
C703        C  0.04679946  0.76479952  0.98942975    -0.09300
C704        C  0.00498278  0.75326898  0.00024670     0.29600
F705        F  0.27738388  0.75690250  0.01199873    -0.19800
H706        H  0.99117931  0.72915544  0.00969558     0.18000
H707        H  0.14206400  0.76901392  0.97156310     0.18000
F708        F  0.18776758  0.74120753  0.97093340    -0.19800
C709        C  0.23229979  0.68302472  0.09410716    -0.21200
C710        C  0.17070612  0.68718847  0.08409789    -0.09300
C711        C  0.12465520  0.69145591  0.10587267     0.29600
C712        C  0.14013348  0.69158692  0.13697197    -0.21200
C713        C  0.20172940  0.68737987  0.14714588    -0.09300
C714        C  0.24765988  0.68297209  0.12527215     0.29600
F715        F  0.30712788  0.67846300  0.13387257    -0.19800
H716        H  0.26857951  0.67960470  0.07773207     0.18000
H717        H  0.10353665  0.69506572  0.15312264     0.18000
F718        F  0.06533928  0.69599895  0.09707528    -0.19800
C719        C  0.20790343  0.55948531  0.87825718    -0.21200
C720        C  0.26138475  0.56241335  0.89702221    -0.09300
C721        C  0.32031079  0.56581121  0.88307839     0.29600
C722        C  0.32554999  0.56591152  0.85123018    -0.21200
C723        C  0.27228074  0.56281239  0.83255876    -0.09300
C724        C  0.21308160  0.55973947  0.84638765     0.29600
F725        F  0.16076560  0.55644352  0.82922650    -0.19800
H726        H  0.16179635  0.55683480  0.88822134     0.18000
H727        H  0.37162258  0.56847268  0.84112149     0.18000
F728        F  0.37302478  0.56896424  0.90005225    -0.19800
C729        C  0.14002962  0.55650653  0.09372601    -0.21200
C730        C  0.20242358  0.56001097  0.08362874    -0.09300
C731        C  0.24918767  0.56369470  0.10556130     0.29600
C732        C  0.23371103  0.56376870  0.13670647    -0.21200
C733        C  0.17121719  0.56041719  0.14666637    -0.09300
C734        C  0.12448064  0.55673961  0.12483597     0.29600
F735        F  0.06425369  0.55293140  0.13358734    -0.19800
H736        H  0.10282296  0.55357827  0.07750478     0.18000
H737        H  0.27064993  0.56667903  0.15309047     0.18000
F738        F  0.30965156  0.56738903  0.09701418    -0.19800
C739        C  0.12058743  0.62922981  0.99363050    -0.21200
C740        C  0.17129367  0.63980053  0.98939042    -0.09300
C741        C  0.23314953  0.63394254  0.98438529     0.29600
C742        C  0.24390380  0.61794876  0.98436067    -0.21200
C743        C  0.19343745  0.60739302  0.98900990    -0.09300
C744        C  0.13134255  0.61319326  0.99333492     0.29600
F745        F  0.08132335  0.60344567  0.99805447    -0.19800
H746        H  0.07233898  0.63335574  0.99743726     0.18000
H747        H  0.29218938  0.61382543  0.98059133     0.18000
F748        F  0.28346182  0.64359044  0.97954880    -0.19800
C749        C  0.21300336  0.18813643  0.84667201    -0.21200
C750        C  0.26706861  0.18533164  0.82815240    -0.09300
C751        C  0.32562650  0.18194149  0.84237087     0.29600
C752        C  0.32999263  0.18180775  0.87425715    -0.21200
C753        C  0.27620536  0.18489236  0.89267026    -0.09300
C754        C  0.21730864  0.18785639  0.87855627     0.29600
F755        F  0.16449450  0.19108139  0.89545912    -0.19800
H756        H  0.16710785  0.19075475  0.83650147     0.18000
H757        H  0.04386390  0.18095148  0.88436539     0.18000
F758        F  0.04680885  0.18069327  0.82543494    -0.19800
C759        C  0.15973773  0.05988494  0.87934779    -0.21200
C760        C  0.09941812  0.06178373  0.89268953    -0.09300
C761        C  0.04585483  0.06384186  0.87351750     0.29600
C762        C  0.05288629  0.06383704  0.84169513    -0.21200
C763        C  0.11317973  0.06167755  0.82829251    -0.09300
C764        C  0.16677187  0.05975396  0.84759137     0.29600
F765        F  0.22628996  0.05767765  0.83595075    -0.19800
H766        H  0.20151326  0.05820243  0.89355496     0.18000
H767        H  0.01101716  0.06548964  0.82753852     0.18000
F768        F  0.98670721  0.06611890  0.88546100    -0.19800
C769        C  0.02603297  0.01050452  0.72469250    -0.21200
C770        C  0.08854257  0.01477063  0.73330285    -0.09300
C771        C  0.13092272  0.00310556  0.74296985     0.29600
C772        C  0.11101071  0.98762398  0.74405104    -0.21200
C773        C  0.04845162  0.98334970  0.73561375    -0.09300
C774        C  0.00612782  0.99499015  0.72572419     0.29600
F775        F  0.28366688  0.99117856  0.71391936    -0.19800
H776        H  0.99223833  0.01920279  0.71705542     0.18000
H777        H  0.14488565  0.97895652  0.75174033     0.18000
F778        F  0.19123444  0.00662732  0.75202903    -0.19800
C779        C  0.12768652  0.11867760  0.74101113    -0.21200
C780        C  0.17832323  0.10804785  0.73729453    -0.09300
C781        C  0.24062509  0.11379178  0.73348372     0.29600
C782        C  0.25156064  0.12978264  0.73287366    -0.21200
C783        C  0.20092754  0.14045762  0.73624435    -0.09300
C784        C  0.13870578  0.13470743  0.74064555     0.29600
F785        F  0.08846058  0.14449012  0.74452042    -0.19800
H786        H  0.07922676  0.11458356  0.74426655     0.18000
H787        H  0.30011942  0.13378174  0.72953945     0.18000
F788        F  0.29089739  0.10401782  0.72954180    -0.19800
C789        C  0.32922455  0.06638237  0.37942623    -0.21200
C790        C  0.27043642  0.06259928  0.39297354    -0.09300
C791        C  0.21772364  0.05930301  0.37379363     0.29600
C792        C  0.22433593  0.05958684  0.34202610    -0.21200
C793        C  0.28338607  0.06299015  0.32858162    -0.09300
C794        C  0.33583898  0.06655503  0.34758759     0.29600
F795        F  0.39338013  0.07042942  0.33543541    -0.19800
H796        H  0.37025893  0.06917940  0.39347074     0.18000
H797        H  0.18348461  0.05672964  0.32789781     0.18000
F798        F  0.15965847  0.05558570  0.38554026    -0.19800
C799        C  0.14712148  0.05750101  0.58912927    -0.21200
C800        C  0.20955670  0.06129205  0.57944000    -0.09300
C801        C  0.25521862  0.06534296  0.60163414     0.29600
C802        C  0.23884776  0.06528925  0.63266784    -0.21200
C803        C  0.17650253  0.06147898  0.64221674    -0.09300
C804        C  0.13065212  0.05763188  0.62011660     0.29600
F805        F  0.07061077  0.05345361  0.62850103    -0.19800
H806        H  0.11066241  0.05433729  0.57269181     0.18000
H807        H  0.27501386  0.06839117  0.64931242     0.18000
F808        F  0.31542148  0.06948802  0.59346596    -0.19800
C809        C  0.04888219  0.18752128  0.34669755    -0.21200
C810        C  0.10274833  0.18528853  0.32777451    -0.09300
C811        C  0.16241296  0.18267078  0.34157886     0.29600
C812        C  0.16797814  0.18277840  0.37344532    -0.21200
C813        C  0.11433165  0.18532826  0.39227006    -0.09300
C814        C  0.05438063  0.18746323  0.37854700     0.29600
F815        F  0.00145276  0.19004370  0.39578244    -0.19800
H816        H  0.00215457  0.18951520  0.33686609     0.18000
H817        H  0.21462257  0.18086040  0.38343961     0.18000
F818        F  0.21552017  0.18016426  0.32443757    -0.19800
C819        C  0.11225221  0.26133869  0.47453939    -0.21200
C820        C  0.05023611  0.26545413  0.48429716    -0.09300
C821        C  0.00911636  0.25365988  0.49458768     0.29600
C822        C  0.02962431  0.23819315  0.49496922    -0.21200
C823        C  0.09162488  0.23407037  0.48526220    -0.09300
C824        C  0.13278485  0.24585913  0.47492439     0.29600
F825        F  0.19242131  0.24246189  0.46466632    -0.19800
H826        H  0.14515822  0.27012961  0.46641818     0.18000
H827        H  0.99670065  0.22941648  0.50312781     0.18000
F828        F  0.94953671  0.25704615  0.50490934    -0.19800
C829        C  0.13199463  0.18998686  0.59971672    -0.21200
C830        C  0.18112729  0.18858608  0.57808724    -0.09300
C831        C  0.24472060  0.18711565  0.58850096     0.29600
C832        C  0.25828255  0.18693549  0.61984765    -0.21200
C833        C  0.20911025  0.18838582  0.64151681    -0.09300
C834        C  0.14555484  0.18999933  0.63101068     0.29600
F835        F  0.09600000  0.19146308  0.65086752    -0.19800
H836        H  0.08281213  0.19120481  0.59240750     0.18000
H837        H  0.30744251  0.18565692  0.62713470     0.18000
F838        F  0.29389884  0.18551500  0.56847225    -0.19800
C839        C  0.25575732  0.11897177  0.48599452    -0.21200
C840        C  0.20470721  0.10830693  0.48495341    -0.09300
C841        C  0.14190676  0.11405163  0.48362990     0.29600
C842        C  0.13084236  0.13007201  0.48362278    -0.21200
C843        C  0.18194660  0.14071680  0.48477934    -0.09300
C844        C  0.24472091  0.13496764  0.48584432     0.29600
F845        F  0.29551924  0.14474466  0.48728523    -0.19800
H846        H  0.30470585  0.11495636  0.48703733     0.18000
H847        H  0.08194089  0.13413513  0.48267108     0.18000
F848        F  0.09111609  0.10425914  0.48265527    -0.19800
C849        C  0.24661170  0.30977787  0.09205343    -0.21200
C850        C  0.18655490  0.31241149  0.07896364    -0.09300
C851        C  0.13364169  0.31500001  0.09834770     0.29600
C852        C  0.14088529  0.31470700  0.13012706    -0.21200
C853        C  0.20076581  0.31176216  0.14330186    -0.09300
C854        C  0.25384830  0.30936089  0.12379836     0.29600
F855        F  0.31294170  0.30645468  0.13520787    -0.19800
H856        H  0.28789183  0.30767229  0.07767016     0.18000
H857        H  0.09942793  0.31674420  0.14442426     0.18000
F858        F  0.07488424  0.31802206  0.08665157    -0.19800
C859        C  0.27156316  0.26036451  0.97472561    -0.21200
C860        C  0.20976412  0.26454190  0.98465970    -0.09300
C861        C  0.16853399  0.25278252  0.99505265     0.29600
C862        C  0.18903073  0.23730202  0.99558854    -0.21200
C863        C  0.25100846  0.23314480  0.98585088    -0.09300
C864        C  0.29200028  0.24488932  0.97519964     0.29600
F865        F  0.01652282  0.24140884  0.96322239    -0.19800
H866        H  0.30443971  0.26911397  0.96640893     0.18000
H867        H  0.15615857  0.22854501  0.00387869     0.18000
F868        F  0.10892385  0.25621119  0.00530796    -0.19800
C869        C  0.97600291  0.43307376  0.09437532    -0.21200
C870        C  0.03594295  0.43592009  0.08117071    -0.09300
C871        C  0.08914069  0.43813637  0.10062729     0.29600
C872        C  0.08187668  0.43772299  0.13237785    -0.21200
C873        C  0.02169449  0.43526597  0.14549424    -0.09300
C874        C  0.96870876  0.43280551  0.12614754     0.29600
F875        F  0.24250852  0.42941780  0.13776305    -0.19800
H876        H  0.26705843  0.43062086  0.07991826     0.18000
H877        H  0.12318951  0.43972759  0.14675116     0.18000
F878        F  0.14834449  0.44086532  0.08915956    -0.19800
C879        C  0.25226892  0.50301255  0.98192112    -0.21200
C880        C  0.29487883  0.51487001  0.99017074    -0.09300
C881        C  0.35888291  0.51088481  0.99694106     0.29600
C882        C  0.04723840  0.49544040  0.99571335    -0.21200
C883        C  0.00448352  0.48358291  0.98760789    -0.09300
C884        C  0.27257321  0.48755727  0.98041965     0.29600
F885        F  0.22931394  0.47660335  0.97200039    -0.19800
H886        H  0.20305568  0.50569429  0.97636083     0.18000
H887        H  0.09649493  0.49274623  0.00115704     0.18000
F888        F  0.40216893  0.52186368  0.00520520    -0.19800
C889        C  0.17482278  0.36872331  0.98778570    -0.21200
C890        C  0.12324859  0.35818053  0.98737956    -0.09300
C891        C  0.06067690  0.36408964  0.98757809     0.29600
C892        C  0.05027469  0.38010970  0.98801803    -0.21200
C893        C  0.10175372  0.39066759  0.98832425    -0.09300
C894        C  0.16437611  0.38478172  0.98831853     0.29600
F895        F  0.21551211  0.39447859  0.98842791    -0.19800
H896        H  0.22360974  0.36455200  0.98770488     0.18000
H897        H  0.00141440  0.38423088  0.98804086     0.18000
F898        F  0.00937312  0.35445007  0.98690804    -0.19800
C899        C  0.98030492  0.31607146  0.62955558    -0.21200
C900        C  0.03943505  0.31245755  0.64288103    -0.09300
C901        C  0.09237635  0.30965467  0.62349920     0.29600
C902        C  0.08556555  0.31020417  0.59170432    -0.21200
C903        C  0.02607703  0.31340563  0.57849368    -0.09300
C904        C  0.97350445  0.31653424  0.59777302     0.29600
F905        F  0.24928647  0.31894767  0.58627515    -0.19800
H906        H  0.93902553  0.31849970  0.64374023     0.18000
H907        H  0.12657803  0.30771189  0.57737920     0.18000
F908        F  0.15080589  0.30619028  0.63508225    -0.19800
C909        C  0.04971196  0.25286484  0.72965496    -0.21200
C910        C  0.00615798  0.26467412  0.73709419    -0.09300
C911        C  0.27854512  0.26049216  0.74428774     0.29600
C912        C  0.25862372  0.24500012  0.74310525    -0.21200
C913        C  0.30132863  0.23317823  0.73471802    -0.09300
C914        C  0.03024052  0.23733170  0.72849864     0.29600
F915        F  0.07441976  0.22642505  0.72093550    -0.19800
H916        H  0.09902504  0.25564273  0.72444960     0.18000
H917        H  0.20962612  0.24226237  0.74902877     0.18000
F918        F  0.23528960  0.27139993  0.75298579    -0.19800
C919        C  0.06169843  0.31362014  0.88286254    -0.21200
C920        C  0.12417500  0.31041232  0.89298253    -0.09300
C921        C  0.17147874  0.30693830  0.87128400     0.29600
C922        C  0.15653688  0.30676151  0.84013380    -0.21200
C923        C  0.09418039  0.31012458  0.82985803    -0.09300
C924        C  0.04681544  0.31360546  0.85165968     0.29600
F925        F  0.98635590  0.31715170  0.84292568    -0.19800
H926        H  0.02432952  0.31637031  0.89916237     0.18000
H927        H  0.19419190  0.30397860  0.82402081     0.18000
F928        F  0.23169879  0.30326530  0.88020956    -0.19800
C929        C  0.13634295  0.43419273  0.62686491    -0.21200
C930        C  0.19068985  0.43592339  0.64555603    -0.09300
C931        C  0.25073689  0.43762906  0.63164903     0.29600
C932        C  0.25581360  0.43790973  0.59978642    -0.21200
C933        C  0.20137737  0.43635974  0.58104315    -0.09300
C934        C  0.14144787  0.43434202  0.59499521     0.29600
F935        F  0.08765181  0.43269758  0.57799076    -0.19800
H936        H  0.08951178  0.43268797  0.63694878     0.18000
H937        H  0.30269224  0.43946630  0.58979792     0.18000
F938        F  0.30430657  0.43947963  0.64873563    -0.19800
C939        C  0.27430657  0.48790922  0.74866600    -0.21200
C940        C  0.21217534  0.48359121  0.73955655    -0.09300
C941        C  0.16997753  0.49523870  0.72961290     0.29600
C942        C  0.18952889  0.51078605  0.72913024    -0.21200
C943        C  0.25163225  0.51509856  0.73832559    -0.09300
C944        C  0.29389677  0.50343886  0.74811788     0.29600
F945        F  0.35377492  0.50701202  0.75773427    -0.19800
H946        H  0.30808528  0.47923580  0.75642257     0.18000
H947        H  0.15580964  0.51947012  0.72135723     0.18000
F948        F  0.11030629  0.49162981  0.71975528    -0.19800
C949        C  0.17528977  0.43909788  0.85324466    -0.21200
C950        C  0.12666930  0.43714177  0.83157238    -0.09300
C951        C  0.06312140  0.43527920  0.84185258     0.29600
C952        C  0.04887175  0.43559244  0.87310266    -0.21200
C953        C  0.09735276  0.43780874  0.89481203    -0.09300
C954        C  0.16106423  0.43950117  0.88447513     0.29600
F955        F  0.21007996  0.44148139  0.90442877    -0.19800
H956        H  0.22445152  0.44054153  0.84600645     0.18000
H957        H  0.99970755  0.43409801  0.88027720     0.18000
F958        F  0.01462778  0.43288021  0.82178376    -0.19800
C959        C  0.16560976  0.36306026  0.74172741    -0.21200
C960        C  0.10399155  0.35753653  0.73541426    -0.09300
C961        C  0.05488744  0.36834329  0.72942336     0.29600
C962        C  0.06717696  0.38428038  0.73024351    -0.21200
C963        C  0.12852666  0.38986072  0.73700793    -0.09300
C964        C  0.17790195  0.37903317  0.74269407     0.29600
F965        F  0.23798800  0.38380206  0.74964590    -0.19800
H966        H  0.20410578  0.35501356  0.74654795     0.18000
H967        H  0.02842840  0.39226265  0.72548899     0.18000
F968        F  0.99493737  0.36354174  0.72228442    -0.19800
C969        C  0.30028693  0.81522971  0.10110114    -0.21200
C970        C  0.02344751  0.81232424  0.08221269    -0.09300
C971        C  0.08293522  0.80954520  0.09594903     0.29600
C972        C  0.08826678  0.80930472  0.12777865    -0.21200
C973        C  0.03458935  0.81187914  0.14663208    -0.09300
C974        C  0.97510475  0.81474971  0.13281763     0.29600
F975        F  0.25319703  0.81829031  0.15008692    -0.19800
H976        H  0.25432224  0.81791560  0.09105641     0.18000
H977        H  0.13470489  0.80696501  0.13763963     0.18000
F978        F  0.13550847  0.80653434  0.07872265    -0.19800
C979        C  0.24875087  0.74549630  0.24400922    -0.21200
C980        C  0.29258722  0.73347126  0.23865301    -0.09300
C981        C  0.35754034  0.73734992  0.23392709     0.29600
C982        C  0.37761928  0.75284357  0.23486684    -0.21200
C983        C  0.00272258  0.76484097  0.23991894    -0.09300
C984        C  0.26880774  0.76099052  0.24487904     0.29600
F985        F  0.22412215  0.77212297  0.25007233    -0.19800
H986        H  0.19871659  0.74291489  0.24776174     0.18000
H987        H  0.09617788  0.75544440  0.22967123     0.18000
F988        F  0.40212915  0.72622904  0.22842427    -0.19800
C989        C  0.13771552  0.93334272  0.12486815    -0.21200
C990        C  0.19138979  0.93585364  0.14363044    -0.09300
C991        C  0.25110993  0.93836921  0.12988043     0.29600
C992        C  0.25651131  0.93858601  0.09802528    -0.21200
C993        C  0.20270837  0.93619519  0.07918101    -0.09300
C994        C  0.14314221  0.93344074  0.09302690     0.29600
F995        F  0.08997676  0.93095586  0.07595463    -0.19800
H996        H  0.09116423  0.93125036  0.13488563     0.18000
H997        H  0.30309526  0.94076088  0.08813208     0.18000
F998        F  0.30385380  0.94112226  0.14710675    -0.19800
C999        C  0.19370068  0.01051240  0.22662046    -0.21200
C1000       C  0.25582849  0.01462444  0.23610523    -0.09300
C1001       C  0.29677147  0.00287913  0.24676900     0.29600
C1002       C  0.27602888  0.98743435  0.24755833    -0.21200
C1003       C  0.21401882  0.98331291  0.23789898    -0.09300
C1004       C  0.17296493  0.99507153  0.22740994     0.29600
F1005       F  0.11331316  0.99167090  0.21724158    -0.19800
H1006       H  0.16090880  0.01927124  0.21828813     0.18000
H1007       H  0.30882939  0.97866979  0.25586070     0.18000
F1008       F  0.35641021  0.00628604  0.25695679    -0.19800
C1009       C  0.17636566  0.87936945  0.23805417    -0.21200
C1010       C  0.12515009  0.88991126  0.23505782    -0.09300
C1011       C  0.06282561  0.88400246  0.23224356     0.29600
C1012       C  0.05222693  0.86799327  0.23313972    -0.21200
C1013       C  0.10328823  0.85747150  0.23663793    -0.09300
C1014       C  0.16575609  0.86333383  0.23874016     0.29600
F1015       F  0.21643601  0.85365615  0.24220235    -0.19800
H1016       H  0.22498797  0.88352087  0.24018952     0.18000
H1017       H  0.00356701  0.86383847  0.23108565     0.18000
F1018       F  0.01190176  0.89362156  0.22892781    -0.19800
C1019       C  0.25193452  0.81044100  0.59515292    -0.21200
C1020       C  0.19210179  0.81342366  0.58205730    -0.09300
C1021       C  0.13936896  0.81614731  0.60146598     0.29600
C1022       C  0.14639022  0.81554304  0.63322564    -0.21200
C1023       C  0.20588487  0.81216719  0.64641392    -0.09300
C1024       C  0.25896231  0.80974451  0.62692867     0.29600
F1025       F  0.31778133  0.80657181  0.63839186    -0.19800
H1026       H  0.29310086  0.80824549  0.58074663     0.18000
H1027       H  0.10498444  0.81767421  0.64750475     0.18000
F1028       F  0.08093599  0.81956312  0.58981048    -0.19800
C1029       C  0.16590078  0.75359599  0.49370910    -0.21200
C1030       C  0.21282612  0.76510329  0.49035278    -0.09300
C1031       C  0.27754221  0.76049934  0.48825746     0.29600
C1032       C  0.29425780  0.74479065  0.48915560    -0.21200
C1033       C  0.24734784  0.73327572  0.49231280    -0.09300
C1034       C  0.18265591  0.73787475  0.49470066     0.29600
F1035       F  0.13516722  0.72724476  0.49780542    -0.19800
H1036       H  0.11594597  0.75675356  0.49551210     0.18000
H1037       H  0.34422621  0.74164793  0.48734623     0.18000
F1038       F  0.32515629  0.77111721  0.48547262    -0.19800
C1039       C  0.15858018  0.80648867  0.34306789    -0.21200
C1040       C  0.09636361  0.81020790  0.33304867    -0.09300
C1041       C  0.04982878  0.81399385  0.35507069     0.29600
C1042       C  0.06533677  0.81397045  0.38620229    -0.21200
C1043       C  0.12764793  0.81040706  0.39608944    -0.09300
C1044       C  0.17415294  0.80660853  0.37418414     0.29600
F1045       F  0.23412525  0.80256459  0.38287563    -0.19800
H1046       H  0.19558295  0.80345448  0.32678378     0.18000
H1047       H  0.02857102  0.81698244  0.40263664     0.18000
F1048       F  0.98954537  0.81788633  0.34662385    -0.19800
C1049       C  0.97957696  0.93302250  0.59251649    -0.21200
C1050       C  0.03900319  0.93631997  0.57917377    -0.09300
C1051       C  0.09222016  0.93882903  0.59846771     0.29600
C1052       C  0.08543363  0.93825507  0.63023217    -0.21200
C1053       C  0.02573059  0.93531498  0.64348611    -0.09300
C1054       C  0.30530802  0.93342238  0.62447301     0.29600
F1055       F  0.24650286  0.93056702  0.63630469    -0.19800
H1056       H  0.27056949  0.93186268  0.57852874     0.18000
H1057       H  0.12666084  0.94051305  0.64451086     0.18000
F1058       F  0.15092666  0.94199100  0.58683050    -0.19800
C1059       C  0.04999698  0.99556785  0.49069282    -0.21200
C1060       C  0.00561099  0.98368565  0.48518342    -0.09300
C1061       C  0.27480105  0.98788015  0.48166644     0.29600
C1062       C  0.25586474  0.00345795  0.48259735    -0.21200
C1063       C  0.30080607  0.01532097  0.48724813    -0.09300
C1064       C  0.36571570  0.01120007  0.49107638     0.29600
F1065       F  0.41136594  0.02215548  0.49573150    -0.19800
H1066       H  0.09996045  0.99284648  0.49430152     0.18000
H1067       H  0.20577709  0.00622526  0.47955552     0.18000
F1068       F  0.22912755  0.97690624  0.47721875    -0.19800
C1069       C  0.17384920  0.93653466  0.35102149    -0.21200
C1070       C  0.12457095  0.93715709  0.32936326    -0.09300
C1071       C  0.06060891  0.93765275  0.33975893     0.29600
C1072       C  0.04687749  0.93770866  0.37107582    -0.21200
C1073       C  0.09628425  0.93736762  0.39269757    -0.09300
C1074       C  0.16014609  0.93666402  0.38228744     0.29600
F1075       F  0.20967602  0.93586785  0.40225637    -0.19800
H1076       H  0.22330494  0.93602964  0.34378864     0.18000
H1077       H  0.99746521  0.93818020  0.37839255     0.18000
F1078       F  0.01102755  0.93795177  0.31976830    -0.19800
C1079       C  0.16521183  0.88541204  0.48105340    -0.21200
C1080       C  0.10437588  0.89102961  0.48862564    -0.09300
C1081       C  0.05599504  0.88036826  0.49660372     0.29600
C1082       C  0.06822335  0.86442740  0.49646334    -0.21200
C1083       C  0.12876781  0.85873621  0.48840878    -0.09300
C1084       C  0.17741062  0.86944308  0.48072173     0.29600
F1085       F  0.23658437  0.86455871  0.47233870    -0.19800
H1086       H  0.20304218  0.89337320  0.47468669     0.18000
H1087       H  0.03012139  0.85653544  0.50277595     0.18000
F1088       F  0.99694550  0.88533172  0.50504057    -0.19800
O1089       O  0.31875185  0.95668651  0.48104685    -0.72900
O1090       O  0.36597028  0.91213286  0.48336556    -0.73800
O1091       O  0.33107680  0.93422072  0.52808146    -0.62500
O1092       O  0.35902514  0.93471708  0.43615417    -0.70900
O1093       O  0.45998311  0.94116152  0.44458446    -0.70400
O1094       O  0.43293642  0.94047960  0.53415634    -0.61700
O1095       O  0.46820096  0.91793954  0.49021092    -0.74200
O1096       O  0.41946851  0.96358451  0.48853049    -0.73000
Cu1097     Cu  0.34016457  0.93424138  0.48184166     1.04600
Cu1098     Cu  0.44864480  0.94104826  0.48955332     1.04300
C1099       C  0.36055201  0.96726335  0.48483919     0.93300
C1100       C  0.42354021  0.90783477  0.48751164     0.92500
C1101       C  0.37872041  0.93713890  0.54561327     0.84600
C1102       C  0.41511265  0.93786022  0.42602952     0.90900
O1103       O  0.53039543  0.83682759  0.48439082    -0.72900
O1104       O  0.57033928  0.79182698  0.48434653    -0.73800
O1105       O  0.53180301  0.81336163  0.43866923    -0.62500
O1106       O  0.56414323  0.81498081  0.53022348    -0.70900
O1107       O  0.46157137  0.80974907  0.53767357    -0.70400
O1108       O  0.42977112  0.80832644  0.44815937    -0.61700
O1109       O  0.46880272  0.78595278  0.49272333    -0.74200
O1110       O  0.42798056  0.83204383  0.49309138    -0.73000
Cu1111     Cu  0.55269021  0.81442417  0.48406347     1.04600
Cu1112     Cu  0.44348397  0.80880177  0.49316960     1.04300
C1113       C  0.47368288  0.84172221  0.48880483     0.93300
C1114       C  0.52704645  0.78169757  0.48887973     0.92500
C1115       C  0.47484325  0.81074803  0.42914096     0.84600
C1116       C  0.51692517  0.81264972  0.54835708     0.90900
O1117       O  0.42787422  0.94043711  0.27711524    -0.72900
O1118       O  0.46031821  0.93900169  0.18773956    -0.73800
O1119       O  0.42481889  0.91677633  0.23203692    -0.62500
O1120       O  0.46851247  0.96266382  0.23289014    -0.70900
O1121       O  0.56933613  0.95643810  0.24225746    -0.70400
O1122       O  0.52703066  0.91149850  0.24009441    -0.61700
O1123       O  0.56275450  0.93367697  0.19533495    -0.74200
O1124       O  0.52885928  0.93446627  0.28668732    -0.73000
Cu1125     Cu  0.44186796  0.93994834  0.23217296     1.04600
Cu1126     Cu  0.55053140  0.93383819  0.24142635     1.04300
C1127       C  0.47218611  0.93748095  0.29619609     0.93300
C1128       C  0.51578686  0.93608967  0.17714577     0.92500
C1129       C  0.46987865  0.90687462  0.23579280     0.84600
C1130       C  0.52665118  0.96672471  0.23761812     0.90900
O1131       O  0.45742207  0.80706393  0.28093974    -0.72900
O1132       O  0.42716275  0.80799494  0.19138249    -0.73800
O1133       O  0.46477712  0.83043453  0.23520068    -0.62500
O1134       O  0.41462419  0.78482133  0.23692586    -0.70900
O1135       O  0.31455138  0.79198700  0.24541363    -0.70400
O1136       O  0.36300189  0.83645200  0.24275914    -0.61700
O1137       O  0.32567827  0.81440554  0.19840977    -0.74200
O1138       O  0.35710067  0.81387935  0.28993930    -0.73000
Cu1139     Cu  0.44453878  0.80732658  0.23589781     1.04600
Cu1140     Cu  0.33662540  0.81438896  0.24448610     1.04300
C1141       C  0.41307125  0.81046061  0.29979966     0.93300
C1142       C  0.37246273  0.81134720  0.18044364     0.92500
C1143       C  0.42062276  0.84065123  0.23830015     0.84600
C1144       C  0.35565840  0.78129877  0.24107446     0.90900
O1145       O  0.43139913  0.43992803  0.77951584    -0.72900
O1146       O  0.46259571  0.43914929  0.69024830    -0.73800
O1147       O  0.42973756  0.41649976  0.73411721    -0.62500
O1148       O  0.46992858  0.46260249  0.73576374    -0.70900
O1149       O  0.57137263  0.45677471  0.74454437    -0.70400
O1150       O  0.53228600  0.41166626  0.74222601    -0.61700
O1151       O  0.56534751  0.43407262  0.69741393    -0.74200
O1152       O  0.53300042  0.43454020  0.78905031    -0.73000
Cu1153     Cu  0.44492026  0.43976075  0.73467176     1.04600
Cu1154     Cu  0.55410503  0.43409834  0.74363126     1.04300
C1155       C  0.47596131  0.43715402  0.79854032     0.93300
C1156       C  0.51796274  0.43641245  0.67940749     0.92500
C1157       C  0.47556521  0.40679107  0.73780333     0.84600
C1158       C  0.52788668  0.46689785  0.74022628     0.90900
O1159       O  0.43593752  0.30832908  0.68798899    -0.72900
O1160       O  0.46155783  0.30681107  0.77783055    -0.73800
O1161       O  0.42197593  0.28475590  0.73304432    -0.62500
O1162       O  0.47040100  0.33052232  0.73298072    -0.70900
O1163       O  0.36798079  0.33621435  0.73943673    -0.70400
O1164       O  0.32129351  0.29165830  0.74072492    -0.61700
O1165       O  0.36061499  0.31338392  0.78592598    -0.74200
O1166       O  0.33387300  0.31439813  0.69410444    -0.73000
Cu1167     Cu  0.45101327  0.30735316  0.73273861     1.04600
Cu1168     Cu  0.34243510  0.31410346  0.74032325     1.04300
C1169       C  0.38174612  0.31170183  0.67654511     0.93300
C1170       C  0.41622642  0.31001205  0.79627329     0.92500
C1171       C  0.36309981  0.28107709  0.73696176     0.84600
C1172       C  0.42561216  0.34059444  0.73586791     0.90900
O1173       O  0.31652869  0.45647482  0.98269226    -0.72900
O1174       O  0.36382737  0.41196870  0.98386425    -0.73800
O1175       O  0.32787602  0.43370905  0.02937550    -0.62500
O1176       O  0.35826421  0.43483217  0.93750710    -0.70900
O1177       O  0.45868226  0.44142667  0.94677775    -0.70400
O1178       O  0.42955698  0.43995647  0.03603122    -0.61700
O1179       O  0.46576053  0.41774706  0.99140132    -0.74200
O1180       O  0.41679759  0.46348209  0.99109289    -0.73000
Cu1181     Cu  0.33806733  0.43406049  0.98306125     1.04600
Cu1182     Cu  0.44616915  0.44091076  0.99157718     1.04300
C1183       C  0.35794361  0.46709516  0.98690370     0.93300
C1184       C  0.42143382  0.40762411  0.98770540     0.92500
C1185       C  0.37517892  0.43653791  0.04719629     0.84600
C1186       C  0.41461137  0.43809222  0.92783845     0.90900
O1187       O  0.45839548  0.30913666  0.03421596    -0.72900
O1188       O  0.42820539  0.30783257  0.94466815    -0.73800
O1189       O  0.46697936  0.28543779  0.98901319    -0.62500
O1190       O  0.42491718  0.33144568  0.98975144    -0.70900
O1191       O  0.52735422  0.33659957  0.98191207    -0.70400
O1192       O  0.56839419  0.29148601  0.98063471    -0.61700
O1193       O  0.53006720  0.31330568  0.93567350    -0.74200
O1194       O  0.56100130  0.31448068  0.02715967    -0.73000
Cu1195     Cu  0.44110757  0.30824489  0.98967278     1.04600
Cu1196     Cu  0.55026789  0.31414958  0.98103334     1.04300
C1197       C  0.51349773  0.31211184  0.04509597     0.93300
C1198       C  0.47351577  0.31045081  0.92589254     0.92500
C1199       C  0.52517038  0.28126475  0.98473865     0.84600
C1200       C  0.47021539  0.34129445  0.98608873     0.90900
O1201       O  0.44119894  0.18548022  0.53532806    -0.72900
O1202       O  0.40851109  0.18401748  0.44391301    -0.73800
O1203       O  0.44369199  0.16219332  0.48921884    -0.62500
O1204       O  0.40109555  0.20715505  0.49019171    -0.70900
O1205       O  0.50201846  0.21337920  0.48103413    -0.70400
O1206       O  0.54595477  0.16748640  0.48113915    -0.61700
O1207       O  0.51086199  0.18944241  0.43632170    -0.74200
O1208       O  0.54237282  0.19133710  0.52575214    -0.73000
Cu1209     Cu  0.42007129  0.18454012  0.49000113     1.04600
Cu1210     Cu  0.52880373  0.19064807  0.48079182     1.04300
C1211       C  0.49787383  0.18846871  0.54482442     0.93300
C1212       C  0.45562776  0.18632766  0.42571835     0.92500
C1213       C  0.50090682  0.15758827  0.48497589     0.84600
C1214       C  0.44377681  0.21744606  0.48553020     0.90900
O1215       O  0.55229658  0.03542514  0.48340752    -0.72900
O1216       O  0.50481413  0.08121494  0.48194436    -0.73800
O1217       O  0.53945716  0.05863962  0.43784629    -0.62500
O1218       O  0.51196454  0.05783158  0.52734942    -0.70900
O1219       O  0.61294049  0.06421294  0.53582834    -0.70400
O1220       O  0.64129337  0.06490509  0.44390206    -0.61700
O1221       O  0.60694465  0.08690681  0.48910007    -0.74200
O1222       O  0.65302479  0.04231653  0.49082230    -0.73000
Cu1223     Cu  0.52362550  0.05803513  0.48241406     1.04600
Cu1224     Cu  0.63209627  0.06477416  0.49020057     1.04300
C1225       C  0.61119342  0.03173738  0.48717511     0.93300
C1226       C  0.54942115  0.09130139  0.48521098     0.92500
C1227       C  0.59364516  0.06197655  0.42636940     0.84600
C1228       C  0.55688857  0.06103197  0.54595123     0.90900
O1229       O  0.43968556  0.06355031  0.68514436    -0.72900
O1230       O  0.40926625  0.06387318  0.77687152    -0.73800
O1231       O  0.44301097  0.08629221  0.73229122    -0.62500
O1232       O  0.40080982  0.04137583  0.72949594    -0.70900
O1233       O  0.50223474  0.03516122  0.73736365    -0.70400
O1234       O  0.54549052  0.08102468  0.73974266    -0.61700
O1235       O  0.51158137  0.05821051  0.78334641    -0.74200
O1236       O  0.54152272  0.05793595  0.69384575    -0.73000
Cu1237     Cu  0.41962137  0.06396064  0.73063962     1.04600
Cu1238     Cu  0.52871180  0.05785617  0.73880815     1.04300
C1239       C  0.49630363  0.06082771  0.67522942     0.93300
C1240       C  0.45672549  0.06111719  0.79460380     0.92500
C1241       C  0.50022097  0.09090813  0.73641060     0.84600
C1242       C  0.44386388  0.03110089  0.73335397     0.90900
O1243       O  0.64042566  0.18308215  0.77632123    -0.72900
O1244       O  0.61154421  0.18468889  0.68441804    -0.73800
O1245       O  0.65285741  0.20603744  0.73006177    -0.62500
O1246       O  0.60499959  0.16158064  0.73055188    -0.70900
O1247       O  0.50311835  0.16732536  0.73840727    -0.70400
O1248       O  0.55243328  0.21304576  0.73811318    -0.61700
O1249       O  0.51082597  0.19109038  0.69353520    -0.74200
O1250       O  0.53880723  0.18945777  0.78298134    -0.73000
Cu1251     Cu  0.63097062  0.18364770  0.73002416     1.04600
Cu1252     Cu  0.52278297  0.19048327  0.73847157     1.04300
C1253       C  0.59304175  0.18589607  0.79412946     0.93300
C1254       C  0.55542654  0.18804903  0.67462747     0.92500
C1255       C  0.61139694  0.21665836  0.73418265     0.84600
C1256       C  0.54755522  0.15721454  0.73484565     0.90900
O1257       O  0.63546861  0.56485396  0.94867426    -0.72900
O1258       O  0.60711572  0.56356559  0.04040911    -0.73800
O1259       O  0.64848466  0.54205133  0.99500919    -0.62500
O1260       O  0.59920741  0.58647615  0.99403223    -0.70900
O1261       O  0.49727830  0.58043242  0.98711819    -0.70400
O1262       O  0.54824496  0.53490251  0.98694301    -0.61700
O1263       O  0.50666734  0.55670996  0.03193797    -0.74200
O1264       O  0.53384264  0.55847168  0.94213514    -0.73000
Cu1265     Cu  0.62605908  0.56444091  0.99484451     1.04600
Cu1266     Cu  0.51798434  0.55736774  0.98682723     1.04300
C1267       C  0.58817421  0.56198571  0.93092353     0.93300
C1268       C  0.55147298  0.56003563  0.05056195     0.92500
C1269       C  0.60727421  0.53137782  0.99079788     0.84600
C1270       C  0.54136437  0.59065534  0.99021893     0.90900
O1271       O  0.40068061  0.68375096  0.94982483    -0.72900
O1272       O  0.43196242  0.68457555  0.04133996    -0.73800
O1273       O  0.39334865  0.70656196  0.99662314    -0.62500
O1274       O  0.43461271  0.66151738  0.99470458    -0.70900
O1275       O  0.53694562  0.66670183  0.98664665    -0.70400
O1276       O  0.49475395  0.71260153  0.98811592    -0.61700
O1277       O  0.53378111  0.69004422  0.03217044    -0.74200
O1278       O  0.50324997  0.68912648  0.94269284    -0.73000
Cu1279     Cu  0.41156692  0.68392522  0.99595495     1.04600
Cu1280     Cu  0.52068624  0.68984973  0.98717898     1.04300
C1281       C  0.44812314  0.68614505  0.93186232     0.93300
C1282       C  0.48870542  0.68730365  0.05100694     0.92500
C1283       C  0.43654907  0.71676352  0.99232651     0.84600
C1284       C  0.49168225  0.65684546  0.99022430     0.90900
O1285       O  0.43460102  0.56329868  0.18964053    -0.72900
O1286       O  0.40226789  0.56466579  0.28113562    -0.73800
O1287       O  0.43634244  0.58655879  0.23574703    -0.62500
O1288       O  0.39535662  0.54166573  0.23469916    -0.70900
O1289       O  0.49654555  0.53549265  0.24307104    -0.70400
O1290       O  0.53865539  0.58165601  0.24434013    -0.61700
O1291       O  0.50466987  0.55923251  0.28852568    -0.74200
O1292       O  0.53644717  0.55802058  0.19900147    -0.73000
Cu1293     Cu  0.41366029  0.56422074  0.23498822     1.04600
Cu1294     Cu  0.52266260  0.55837017  0.24400271     1.04300
C1295       C  0.49142456  0.56054251  0.18004944     0.93300
C1296       C  0.44947713  0.56232521  0.29922880     0.92500
C1297       C  0.49300957  0.59139736  0.24037766     0.84600
C1298       C  0.43825681  0.53138648  0.23868804     0.90900
O1299       O  0.49683336  0.66769879  0.24447385    -0.72900
O1300       O  0.54550672  0.71344725  0.24244206    -0.73800
O1301       O  0.50509663  0.69093987  0.19875327    -0.62500
O1302       O  0.53135561  0.69036754  0.28837954    -0.70900
O1303       O  0.63331701  0.68415786  0.28242220    -0.70400
O1304       O  0.60582611  0.68426579  0.19039795    -0.61700
O1305       O  0.64604213  0.70641021  0.23485287    -0.74200
O1306       O  0.59919488  0.66193949  0.23793195    -0.73000
Cu1307     Cu  0.51617934  0.69087239  0.24371281     1.04600
Cu1308     Cu  0.62462725  0.68400515  0.23611077     1.04300
C1309       C  0.54164402  0.65760650  0.24188014     0.93300
C1310       C  0.60445385  0.71705001  0.23844201     0.92500
C1311       C  0.54995158  0.68754391  0.18020565     0.84600
C1312       C  0.58544053  0.68701265  0.29991070     0.90900
O1313       O  0.59709728  0.94007585  0.77734714    -0.72900
O1314       O  0.62826240  0.93883254  0.68787627    -0.73800
O1315       O  0.59544999  0.91651046  0.73229409    -0.62500
O1316       O  0.63535217  0.96254684  0.73277103    -0.70900
O1317       O  0.40694036  0.95645123  0.74161203    -0.70400
O1318       O  0.69794439  0.91156026  0.74039758    -0.61700
O1319       O  0.39872960  0.93362477  0.69507460    -0.74200
O1320       O  0.36891803  0.93461422  0.78688483    -0.73000
Cu1321     Cu  0.61052242  0.93970417  0.73233072     1.04600
Cu1322     Cu  0.38866912  0.93385634  0.74130376     1.04300
C1323       C  0.64215794  0.93749324  0.79624698     0.93300
C1324       C  0.35105678  0.93610841  0.67732587     0.92500
C1325       C  0.64102883  0.90676312  0.73612068     0.84600
C1326       C  0.36385485  0.96667333  0.73730934     0.90900
O1327       O  0.53516574  0.83634772  0.74227832    -0.72900
O1328       O  0.48575597  0.79206222  0.74519379    -0.73800
O1329       O  0.52723818  0.81400568  0.78956421    -0.62500
O1330       O  0.49925617  0.81432299  0.69771506    -0.70900
O1331       O  0.60067767  0.80768698  0.69147121    -0.70400
O1332       O  0.62780976  0.80716210  0.78130048    -0.61700
O1333       O  0.58593369  0.78469873  0.73768044    -0.74200
O1334       O  0.63704175  0.83028556  0.73527168    -0.73000
Cu1335     Cu  0.50838469  0.81438580  0.74397194     1.04600
Cu1336     Cu  0.61640922  0.80718747  0.73621970     1.04300
C1337       C  0.59289853  0.84052226  0.73816347     0.93300
C1338       C  0.52680802  0.78128898  0.74175174     0.92500
C1339       C  0.58293309  0.81062751  0.79981366     0.84600
C1340       C  0.54663597  0.81124377  0.68007861     0.90900
O1341       O  0.62507095  0.94087053  0.94435732    -0.72900
O1342       O  0.59696134  0.93984835  0.03413333    -0.73800
O1343       O  0.63271374  0.91744249  0.98993447    -0.62500
O1344       O  0.58377414  0.96311858  0.98861291    -0.70900
O1345       O  0.48333329  0.95613249  0.98061461    -0.70400
O1346       O  0.53077586  0.91165105  0.98246729    -0.61700
O1347       O  0.49528335  0.93355633  0.02748479    -0.74200
O1348       O  0.52439508  0.93431067  0.93563852    -0.73000
Cu1349     Cu  0.61316528  0.94057369  0.98945775     1.04600
Cu1350     Cu  0.50495456  0.93371696  0.98124403     1.04300
C1351       C  0.58040113  0.93760972  0.92561739     0.93300
C1352       C  0.54247795  0.93645470  0.04529846     0.92500
C1353       C  0.58826820  0.90731648  0.98670827     0.84600
C1354       C  0.52486746  0.96674423  0.98464185     0.90900
O1355       O  0.62397959  0.80891524  0.03769878    -0.72900
O1356       O  0.59552557  0.80775485  0.94799318    -0.73800
O1357       O  0.63405576  0.78537940  0.99250221    -0.62500
O1358       O  0.59079173  0.83123676  0.99309914    -0.70900
O1359       O  0.69345283  0.83645425  0.98594761    -0.70400
O1360       O  0.40121924  0.79150035  0.98420727    -0.61700
O1361       O  0.36378200  0.81358840  0.93946977    -0.74200
O1362       O  0.39342872  0.81414279  0.03098289    -0.73000
Cu1363     Cu  0.60754564  0.80809286  0.99305882     1.04600
Cu1364     Cu  0.38337861  0.81411314  0.98490680     1.04300
C1365       C  0.34574913  0.81177208  0.04879077     0.93300
C1366       C  0.64093220  0.81060519  0.92939848     0.92500
C1367       C  0.35796302  0.78133017  0.98860067     0.84600
C1368       C  0.63613984  0.84108949  0.98969435     0.90900
O1369       O  0.66194760  0.53597501  0.74315218    -0.72900
O1370       O  0.37098388  0.58184116  0.74447420    -0.73800
O1371       O  0.66933069  0.55957832  0.78841267    -0.62500
O1372       O  0.36904605  0.55842469  0.69904539    -0.70900
O1373       O  0.60031648  0.56374469  0.68952038    -0.70400
O1374       O  0.56685523  0.56490153  0.78094466    -0.61700
O1375       O  0.60162712  0.58700252  0.73581086    -0.74200
O1376       O  0.56061786  0.54193628  0.73438808    -0.73000
Cu1377     Cu  0.68779985  0.55874125  0.74398539     1.04600
Cu1378     Cu  0.57879061  0.56458004  0.73482378     1.04300
C1379       C  0.60386404  0.53175993  0.73877910     0.93300
C1380       C  0.65857281  0.59172970  0.74033978     0.92500
C1381       C  0.61393318  0.56249593  0.79907664     0.84600
C1382       C  0.65721052  0.56096990  0.68003000     0.90900
O1383       O  0.37973827  0.71384846  0.74378506    -0.72900
O1384       O  0.66269943  0.66822615  0.74400386    -0.73800
O1385       O  0.36533515  0.69042229  0.78892503    -0.62500
O1386       O  0.33727445  0.69176484  0.69941065    -0.70900
O1387       O  0.43757108  0.68486015  0.69061370    -0.70400
O1388       O  0.46693126  0.68399593  0.78250898    -0.61700
O1389       O  0.43104821  0.66222457  0.73738206    -0.74200
O1390       O  0.47974181  0.70653896  0.73560993    -0.73000
Cu1391     Cu  0.34932388  0.69131423  0.74437346     1.04600
Cu1392     Cu  0.45731497  0.68421308  0.73621995     1.04300
C1393       C  0.43885582  0.71728465  0.73972470     0.93300
C1394       C  0.37336249  0.65797312  0.74124675     0.92500
C1395       C  0.41948529  0.68692402  0.80021485     0.84600
C1396       C  0.38166131  0.68829565  0.68065325     0.90900
O1397       O  0.44031411  0.56400466  0.54040555    -0.72900
O1398       O  0.46764326  0.56476538  0.44847714    -0.73800
O1399       O  0.43208898  0.58659430  0.49349797    -0.62500
O1400       O  0.48129355  0.54225291  0.49535609    -0.70900
O1401       O  0.38100145  0.53502245  0.48778489    -0.70400
O1402       O  0.66360640  0.58067005  0.48675527    -0.61700
O1403       O  0.36602394  0.55829109  0.44239046    -0.74200
O1404       O  0.67279232  0.55720511  0.53207645    -0.73000
Cu1405     Cu  0.45882405  0.56460624  0.49473450     1.04600
Cu1406     Cu  0.35067555  0.55749026  0.48712141     1.04300
C1407       C  0.38468870  0.56055277  0.55069392     0.93300
C1408       C  0.42008363  0.56180072  0.43092353     0.92500
C1409       C  0.37430982  0.59077053  0.48964746     0.84600
C1410       C  0.44012529  0.53154248  0.49150364     0.90900
O1411       O  0.59608426  0.68469851  0.54136542    -0.72900
O1412       O  0.56489734  0.68344673  0.44964062    -0.73800
O1413       O  0.59937543  0.66153775  0.49500859    -0.62500
O1414       O  0.55645684  0.70635262  0.49613167    -0.70900
O1415       O  0.65787532  0.71254270  0.48829215    -0.70400
O1416       O  0.36734069  0.66658260  0.48712539    -0.61700
O1417       O  0.66716930  0.68915058  0.44268319    -0.74200
O1418       O  0.69797271  0.69001818  0.53209384    -0.73000
Cu1419     Cu  0.57565479  0.68381810  0.49587216     1.04600
Cu1420     Cu  0.68465605  0.68982830  0.48715393     1.04300
C1421       C  0.65290089  0.68741329  0.55099609     0.93300
C1422       C  0.61229810  0.68601631  0.43173070     0.92500
C1423       C  0.65627302  0.65683240  0.49038446     0.84600
C1424       C  0.59941816  0.71662196  0.49214672     0.90900
O1425       O  0.53202949  0.41228522  0.48425358    -0.72900
O1426       O  0.48425836  0.45673170  0.48316699    -0.73800
O1427       O  0.52592195  0.43519726  0.43787098    -0.62500
O1428       O  0.49601178  0.43399356  0.52962766    -0.70900
O1429       O  0.59773529  0.44022910  0.53636282    -0.70400
O1430       O  0.62652021  0.44178255  0.44682984    -0.61700
O1431       O  0.58449825  0.46379634  0.49143384    -0.74200
O1432       O  0.63410135  0.41808587  0.49154632    -0.73000
Cu1433     Cu  0.50605992  0.43435817  0.48341049     1.04600
Cu1434     Cu  0.61423928  0.44123494  0.49177844     1.04300
C1435       C  0.58961567  0.40797235  0.48820058     0.93300
C1436       C  0.52552628  0.46737218  0.48745684     0.92500
C1437       C  0.58210127  0.43847774  0.42802834     0.84600
C1438       C  0.54321079  0.43683439  0.54747234     0.90900
O1439       O  0.40654766  0.29235296  0.47989967    -0.72900
O1440       O  0.36419317  0.33727386  0.48164412    -0.73800
O1441       O  0.39976259  0.31525612  0.52667179    -0.62500
O1442       O  0.36555383  0.31413822  0.43518605    -0.70900
O1443       O  0.59846741  0.30820261  0.44491889    -0.70400
O1444       O  0.29745139  0.30982029  0.53433174    -0.61700
O1445       O  0.59570661  0.33199477  0.48980300    -0.74200
O1446       O  0.30564897  0.28615316  0.48916711    -0.73000
Cu1447     Cu  0.38755901  0.31493927  0.48050046     1.04600
Cu1448     Cu  0.61286530  0.30877964  0.48975251     1.04300
C1449       C  0.36382997  0.28206930  0.48446713     0.93300
C1450       C  0.64091519  0.34184501  0.48578194     0.92500
C1451       C  0.35271934  0.31286518  0.54489595     0.84600
C1452       C  0.30861618  0.31120808  0.42594397     0.90900
O1453       O  0.62451397  0.43920012  0.18984715    -0.72900
O1454       O  0.59515996  0.44043951  0.27935069    -0.73800
O1455       O  0.63557683  0.46272403  0.23531092    -0.62500
O1456       O  0.58969241  0.41687937  0.23407348    -0.70900
O1457       O  0.35823580  0.41130472  0.24189026    -0.70400
O1458       O  0.40341067  0.45606073  0.24363615    -0.61700
O1459       O  0.36276353  0.43432162  0.28851984    -0.74200
O1460       O  0.39352741  0.43327325  0.19680166    -0.73000
Cu1461     Cu  0.60773671  0.44004961  0.23441022     1.04600
Cu1462     Cu  0.38302149  0.43354272  0.24301853     1.04300
C1463       C  0.34614173  0.43580619  0.17889757     0.93300
C1464       C  0.63978215  0.43746228  0.29823395     0.92500
C1465       C  0.36123681  0.46651037  0.23949544     0.84600
C1466       C  0.63456968  0.40689015  0.23748233     0.90900
O1467       O  0.52952691  0.33605214  0.23973083    -0.72900
O1468       O  0.48551837  0.29128138  0.24159749    -0.73800
O1469       O  0.52552003  0.31323732  0.28650133    -0.62500
O1470       O  0.49516701  0.31397066  0.19460099    -0.70900
O1471       O  0.59729708  0.30814601  0.18791448    -0.70400
O1472       O  0.62642371  0.30706289  0.27722621    -0.61700
O1473       O  0.58640062  0.28475653  0.23306129    -0.74200
O1474       O  0.63180288  0.33058878  0.23218328    -0.73000
Cu1475     Cu  0.50533673  0.31381654  0.24091704     1.04600
Cu1476     Cu  0.61394864  0.30740436  0.23236359     1.04300
C1477       C  0.58687711  0.34056768  0.23569174     0.93300
C1478       C  0.52789126  0.28087280  0.23730668     0.92500
C1479       C  0.58200914  0.31016884  0.29618447     0.84600
C1480       C  0.54267029  0.31129447  0.17676631     0.90900
O1481       O  0.38361117  0.03488018  0.98359193    -0.72900
O1482       O  0.33616271  0.08061388  0.98116663    -0.73800
O1483       O  0.37179296  0.05796959  0.93744309    -0.62500
O1484       O  0.34248342  0.05759245  0.02723346    -0.70900
O1485       O  0.44376187  0.06381950  0.03578376    -0.70400
O1486       O  0.47395049  0.06391177  0.94408243    -0.61700
O1487       O  0.43842389  0.08633817  0.98822050    -0.74200
O1488       O  0.48425736  0.04171194  0.99153109    -0.73000
Cu1489     Cu  0.35497282  0.05750787  0.98213724     1.04600
Cu1490     Cu  0.46359308  0.06414973  0.99022522     1.04300
C1491       C  0.44238387  0.03116020  0.98771795     0.93300
C1492       C  0.38092047  0.09068274  0.98398662     0.92500
C1493       C  0.42657233  0.06111840  0.92633277     0.84600
C1494       C  0.38753678  0.06075995  0.04581229     0.90900
O1495       O  0.37408300  0.16661480  0.98125553    -0.72900
O1496       O  0.32916268  0.21253035  0.98175562    -0.73800
O1497       O  0.37002028  0.19035503  0.02618003    -0.62500
O1498       O  0.33887183  0.18872383  0.93692447    -0.70900
O1499       O  0.56931423  0.18323717  0.94415484    -0.70400
O1500       O  0.60206819  0.18453484  0.03574973    -0.61700
O1501       O  0.56150177  0.20628464  0.99065962    -0.74200
O1502       O  0.60478329  0.16139978  0.98945130    -0.73000
Cu1503     Cu  0.35652245  0.18980257  0.98128898     1.04600
Cu1504     Cu  0.58085142  0.18368829  0.99034321     1.04300
C1505       C  0.32894913  0.15672913  0.98507637     0.93300
C1506       C  0.60414203  0.21657552  0.98593488     0.92500
C1507       C  0.32581854  0.18737965  0.04533209     0.84600
C1508       C  0.61652969  0.18557503  0.92601507     0.90900
O1509       O  0.66598453  0.03518773  0.23928959    -0.72900
O1510       O  0.37876095  0.08102130  0.23858351    -0.73800
O1511       O  0.67627830  0.05910177  0.28381583    -0.62500
O1512       O  0.37295046  0.05710359  0.19407682    -0.70900
O1513       O  0.60479494  0.06343580  0.18530643    -0.70400
O1514       O  0.57360604  0.06439875  0.27681780    -0.61700
O1515       O  0.60813858  0.08639733  0.23175145    -0.74200
O1516       O  0.56512946  0.04150768  0.23025161    -0.73000
Cu1517     Cu  0.69314875  0.05787060  0.23928177     1.04600
Cu1518     Cu  0.58435523  0.06410241  0.23070565     1.04300
C1519       C  0.60763327  0.03118634  0.23498650     0.93300
C1520       C  0.66554217  0.09094530  0.23551337     0.92500
C1521       C  0.62121689  0.06214888  0.29470435     0.84600
C1522       C  0.66107543  0.06030802  0.17542219     0.90900
O1523       O  0.33772101  0.16721741  0.23867719    -0.72900
O1524       O  0.38490291  0.21291026  0.23833138    -0.73800
O1525       O  0.34313628  0.19085298  0.19386527    -0.62500
O1526       O  0.37406535  0.18932771  0.28312806    -0.70900
O1527       O  0.47594483  0.18338711  0.27581954    -0.70400
O1528       O  0.44373113  0.18451144  0.18418617    -0.61700
O1529       O  0.48542369  0.20625990  0.22921119    -0.74200
O1530       O  0.43968081  0.16158278  0.23062502    -0.73000
Cu1531     Cu  0.35649199  0.19032764  0.23873815     1.04600
Cu1532     Cu  0.46476619  0.18375122  0.22961535     1.04300
C1533       C  0.38227898  0.15716983  0.23495200     0.93300
C1534       C  0.44345590  0.21671773  0.23395519     0.92500
C1535       C  0.38715379  0.18765655  0.17473817     0.84600
C1536       C  0.42891501  0.18604016  0.29392712     0.90900
C1537       C  0.62749594  0.11848160  0.23631274    -0.21200
C1538       C  0.67873058  0.10785384  0.23597819    -0.09300
C1539       C  0.40932682  0.11366960  0.23617920     0.29600
C1540       C  0.42010231  0.12967320  0.23600515    -0.21200
C1541       C  0.36882271  0.14027838  0.23566417    -0.09300
C1542       C  0.63843838  0.13449752  0.23626957     0.29600
F1543       F  0.58755060  0.14427469  0.23634535    -0.19800
H1544       H  0.57858251  0.11441561  0.23657743     0.18000
H1545       H  0.46901030  0.13374639  0.23613405     0.18000
F1546       F  0.46037111  0.10394379  0.23633626    -0.19800
C1547       C  0.29270507  0.18762249  0.10038831    -0.21200
C1548       C  0.34154135  0.18728701  0.07842963    -0.09300
C1549       C  0.40570793  0.18682055  0.08844783     0.29600
C1550       C  0.42018704  0.18688817  0.11966493    -0.21200
C1551       C  0.37138499  0.18747817  0.14163071    -0.09300
C1552       C  0.30717842  0.18775142  0.13160394     0.29600
F1553       F  0.59074202  0.18823426  0.15169203    -0.19800
H1554       H  0.57602792  0.18816352  0.09320989     0.18000
H1555       H  0.46980965  0.18654208  0.12662748     0.18000
F1556       F  0.45476278  0.18605882  0.06816095    -0.19800
C1557       C  0.64497078  0.06438300  0.08916649    -0.21200
C1558       C  0.37322410  0.06090238  0.07898584    -0.09300
C1559       C  0.42016576  0.05723374  0.10069068     0.29600
C1560       C  0.40483430  0.05692773  0.13184329    -0.21200
C1561       C  0.67604928  0.06049828  0.14219134    -0.09300
C1562       C  0.62944399  0.06428849  0.12028160     0.29600
F1563       F  0.56902199  0.06803962  0.12881985    -0.19800
H1564       H  0.60803620  0.06727595  0.07278430     0.18000
H1565       H  0.44209741  0.05392785  0.14796367     0.18000
F1566       F  0.48025866  0.05341066  0.09173726    -0.19800
C1567       C  0.63866198  0.11299160  0.98983973    -0.21200
C1568       C  0.36694508  0.10750827  0.98279196    -0.09300
C1569       C  0.41531754  0.11830694  0.97553391     0.29600
C1570       C  0.40276998  0.13425354  0.97631657    -0.21200
C1571       C  0.34186148  0.13978479  0.98424278    -0.09300
C1572       C  0.62591990  0.12892082  0.99052676     0.29600
F1573       F  0.56584641  0.13359054  0.99781959    -0.19800
H1574       H  0.60054664  0.10492194  0.99520681     0.18000
H1575       H  0.44085436  0.14227156  0.97062949     0.18000
F1576       F  0.47460969  0.11347365  0.96721281    -0.19800
C1577       C  0.52586629  0.23720537  0.22434731    -0.21200
C1578       C  0.46418148  0.23320425  0.23465249    -0.09300
C1579       C  0.42445517  0.24497936  0.24630863     0.29600
C1580       C  0.44600075  0.26034704  0.24737191    -0.21200
C1581       C  0.50758160  0.26435801  0.23695809    -0.09300
C1582       C  0.54738772  0.25258116  0.22538315     0.29600
F1583       F  0.60646133  0.25591753  0.21435566    -0.19800
H1584       H  0.55765069  0.22841221  0.21520750     0.18000
H1585       H  0.41420057  0.26914013  0.25650123     0.18000
F1586       F  0.36528422  0.24166556  0.25724364    -0.19800
C1587       C  0.54849242  0.36805668  0.23446662    -0.21200
C1588       C  0.59993119  0.35749351  0.23527669    -0.09300
C1589       C  0.32846753  0.36326016  0.23655076     0.29600
C1590       C  0.33909380  0.37928730  0.23712123    -0.21200
C1591       C  0.62157601  0.38995475  0.23642300    -0.09300
C1592       C  0.55898908  0.38408777  0.23498675     0.29600
F1593       F  0.50780684  0.39376837  0.23446015    -0.19800
H1594       H  0.49969393  0.36392494  0.23350233     0.18000
H1595       H  0.38794698  0.38338459  0.23794420     0.18000
F1596       F  0.37952688  0.35354602  0.23734979    -0.19800
C1597       C  0.54854639  0.31163528  0.35121287    -0.21200
C1598       C  0.59736775  0.31033267  0.32935165    -0.09300
C1599       C  0.32726934  0.30943651  0.33980693     0.29600
C1600       C  0.34162879  0.30989361  0.37100628    -0.21200
C1601       C  0.62684929  0.31088083  0.39257901    -0.09300
C1602       C  0.56284909  0.31182838  0.38246500     0.29600
F1603       F  0.51388325  0.31318780  0.40268364    -0.19800
H1604       H  0.49907317  0.31246439  0.34414990     0.18000
H1605       H  0.39115569  0.30922236  0.37805841     0.18000
F1606       F  0.37651077  0.30830702  0.31969026    -0.19800
C1607       C  0.34093941  0.43793564  0.35304111    -0.21200
C1608       C  0.62499509  0.43761566  0.33144184    -0.09300
C1609       C  0.56108629  0.43762582  0.34192446     0.29600
C1610       C  0.54749685  0.43789400  0.37323263    -0.21200
C1611       C  0.59694792  0.43826812  0.39483055    -0.09300
C1612       C  0.66086848  0.43822170  0.38435585     0.29600
F1613       F  0.37692593  0.43841393  0.40430793    -0.19800
H1614       H  0.39039459  0.43788151  0.34574151     0.18000
H1615       H  0.49805593  0.43786895  0.38055531     0.18000
F1616       F  0.51138430  0.43716339  0.32201208    -0.19800
C1617       C  0.66489108  0.38563425  0.48163789    -0.21200
C1618       C  0.60356637  0.39111926  0.48864392    -0.09300
C1619       C  0.55473774  0.38029214  0.49503939     0.29600
C1620       C  0.56708283  0.36434870  0.49400307    -0.21200
C1621       C  0.62821691  0.35880873  0.48659809    -0.09300
C1622       C  0.67722013  0.36967515  0.48042547     0.29600
F1623       F  0.40441230  0.36513995  0.47509425    -0.19800
H1624       H  0.37026416  0.39389118  0.47829444     0.18000
H1625       H  0.52864343  0.35633583  0.49914184     0.18000
F1626       F  0.49510465  0.38509270  0.50283607    -0.19800
C1627       C  0.41853928  0.50313743  0.48475091    -0.21200
C1628       C  0.46204442  0.51512561  0.49090837    -0.09300
C1629       C  0.52696942  0.51126325  0.49569655     0.29600
C1630       C  0.54727105  0.49579512  0.49434952    -0.21200
C1631       C  0.50375360  0.48380658  0.48817367    -0.09300
C1632       C  0.43884711  0.48768142  0.48333306     0.29600
F1633       F  0.39453418  0.47659674  0.47713154    -0.19800
H1634       H  0.36856426  0.50571414  0.48079445     0.18000
H1635       H  0.59724213  0.49321071  0.49828550     0.18000
F1636       F  0.57127936  0.52237500  0.50170895    -0.19800
C1637       C  0.39594874  0.63433718  0.48287343    -0.21200
C1638       C  0.66889862  0.63989533  0.48945208    -0.09300
C1639       C  0.61957572  0.62903858  0.49501302     0.29600
C1640       C  0.63213676  0.61309937  0.49430535    -0.21200
C1641       C  0.69394310  0.60763816  0.48831980    -0.09300
C1642       C  0.40857398  0.61841783  0.48208480     0.29600
F1643       F  0.46837727  0.61365859  0.47448363    -0.19800
H1644       H  0.43434305  0.64236787  0.47775955     0.18000
H1645       H  0.59369837  0.60503325  0.49913673     0.18000
F1646       F  0.55923250  0.63374699  0.50163274    -0.19800
C1647       C  0.39580165  0.68342519  0.59436739    -0.21200
C1648       C  0.66805756  0.68745992  0.58405614    -0.09300
C1649       C  0.62217263  0.69160324  0.60600319     0.29600
C1650       C  0.63840010  0.69196415  0.63702488    -0.21200
C1651       C  0.36651725  0.68811644  0.64743434    -0.09300
C1652       C  0.41194999  0.68361326  0.62541726     0.29600
F1653       F  0.47170334  0.67921586  0.63378213    -0.19800
H1654       H  0.43177401  0.67993831  0.57789228     0.18000
H1655       H  0.60190581  0.69530517  0.65334031     0.18000
F1656       F  0.56228126  0.69579512  0.59743412    -0.19800
C1657       C  0.40173592  0.56457143  0.63704214    -0.21200
C1658       C  0.67241187  0.56082786  0.64697123    -0.09300
C1659       C  0.62609393  0.55681041  0.62519453     0.29600
C1660       C  0.64161425  0.55662220  0.59409776    -0.21200
C1661       C  0.37053676  0.56059799  0.58400521    -0.09300
C1662       C  0.41717314  0.56448865  0.60587810     0.29600
F1663       F  0.47742124  0.56835307  0.59726258    -0.19800
H1664       H  0.43848857  0.56762573  0.65342357     0.18000
H1665       H  0.60468299  0.55342040  0.57793361     0.18000
F1666       F  0.56636130  0.55259464  0.63400606    -0.19800
C1667       C  0.61991777  0.61925957  0.73827859    -0.21200
C1668       C  0.67109510  0.60868790  0.74101667    -0.09300
C1669       C  0.40051968  0.61452330  0.74432744     0.29600
C1670       C  0.41092975  0.63053649  0.74455684    -0.21200
C1671       C  0.35972412  0.64108676  0.74195342    -0.09300
C1672       C  0.63053636  0.63530956  0.73855396     0.29600
F1673       F  0.58001130  0.64504659  0.73521762    -0.19800
H1674       H  0.57137327  0.61512415  0.73571545     0.18000
H1675       H  0.45957751  0.63466621  0.74675945     0.18000
F1676       F  0.45164238  0.60488794  0.74663877    -0.19800
C1677       C  0.54723757  0.99507082  0.99213412    -0.21200
C1678       C  0.50363881  0.98321976  0.98513106    -0.09300
C1679       C  0.43927018  0.98727763  0.97935627     0.29600
C1680       C  0.41959059  0.00279754  0.98061745    -0.21200
C1681       C  0.46324303  0.01465159  0.98756078    -0.09300
C1682       C  0.52757935  0.01058190  0.99338005     0.29600
F1683       F  0.57196938  0.02153344  0.00032790    -0.19800
H1684       H  0.59680278  0.99234701  0.99683565     0.18000
H1685       H  0.37007690  0.00553678  0.97584699     0.18000
F1686       F  0.39499507  0.97631770  0.97228651    -0.19800
C1687       C  0.55065359  0.87981494  0.98513139    -0.21200
C1688       C  0.60166423  0.89041508  0.98798417    -0.09300
C1689       C  0.66381378  0.88459322  0.99212927     0.29600
C1690       C  0.67435005  0.86855626  0.99291974    -0.21200
C1691       C  0.62329910  0.85799583  0.98983523    -0.09300
C1692       C  0.56112205  0.86381658  0.98612578     0.29600
F1693       F  0.51050594  0.85410512  0.98271408    -0.19800
H1694       H  0.50217301  0.88387577  0.98193492     0.18000
H1695       H  0.39132915  0.86448878  0.99452667     0.18000
F1696       F  0.38351745  0.89441239  0.99364381    -0.19800
C1697       C  0.54675892  0.75282819  0.73442287    -0.21200
C1698       C  0.50458326  0.76488900  0.74202927    -0.09300
C1699       C  0.44038467  0.76113218  0.74899061     0.29600
C1700       C  0.41926434  0.74572126  0.74793881    -0.21200
C1701       C  0.46133927  0.73366978  0.74012165    -0.09300
C1702       C  0.52568916  0.73741835  0.73343222     0.29600
F1703       F  0.56862543  0.72625765  0.72567051    -0.19800
H1704       H  0.59617124  0.75531885  0.72888519     0.18000
H1705       H  0.36984875  0.74322817  0.75346427     0.18000
F1706       F  0.39764008  0.77229374  0.75698569    -0.19800
C1707       C  0.65936712  0.80737331  0.84336343    -0.21200
C1708       C  0.59698161  0.81074071  0.83312026    -0.09300
C1709       C  0.54966696  0.81422965  0.85494416     0.29600
C1710       C  0.56445853  0.81409398  0.88614312    -0.21200
C1711       C  0.62680918  0.81075249  0.89625451    -0.09300
C1712       C  0.67424503  0.80742247  0.87452961     0.29600
F1713       F  0.39980174  0.80318403  0.88362005    -0.19800
H1714       H  0.69702234  0.80463417  0.82722073     0.18000
H1715       H  0.52707185  0.81680101  0.90246203     0.18000
F1716       F  0.48926381  0.81786652  0.84625421    -0.19800
C1717       C  0.56506256  0.93345999  0.83918478    -0.21200
C1718       C  0.62702941  0.93742562  0.82933507    -0.09300
C1719       C  0.67300806  0.94149759  0.85124987     0.29600
C1720       C  0.65712105  0.94162638  0.88232837    -0.21200
C1721       C  0.59518365  0.93759225  0.89233073    -0.09300
C1722       C  0.54929900  0.93339526  0.87031296     0.29600
F1723       F  0.48950107  0.92904514  0.87875077    -0.19800
H1724       H  0.52879809  0.93018712  0.82271666     0.18000
H1725       H  0.69368100  0.94493623  0.89860198     0.18000
F1726       F  0.40238419  0.94613218  0.84303536    -0.19800
C1727       C  0.68010330  0.87925589  0.73754643    -0.21200
C1728       C  0.62869553  0.88980896  0.73576227    -0.09300
C1729       C  0.56618193  0.88393458  0.73402015     0.29600
C1730       C  0.55558428  0.86794529  0.73455499    -0.21200
C1731       C  0.60679301  0.85738151  0.73671161    -0.09300
C1732       C  0.66944608  0.86320804  0.73793888     0.29600
F1733       F  0.72027598  0.85347959  0.74011474    -0.19800
H1734       H  0.72885300  0.88340845  0.73882400     0.18000
H1735       H  0.50674373  0.86384918  0.73331714     0.18000
F1736       F  0.51502502  0.89358122  0.73216278    -0.19800
C1737       C  0.65162427  0.68387087  0.34709222    -0.21200
C1738       C  0.59167556  0.68635730  0.33369340    -0.09300
C1739       C  0.53779822  0.68806929  0.35296090     0.29600
C1740       C  0.54450048  0.68761306  0.38476317    -0.21200
C1741       C  0.60474026  0.68553056  0.39807995    -0.09300
C1742       C  0.65830147  0.68347798  0.37886200     0.29600
F1743       F  0.71725228  0.68088743  0.39070252    -0.19800
H1744       H  0.69360491  0.68226633  0.33295110     0.18000
H1745       H  0.50265765  0.68922951  0.39900841     0.18000
F1746       F  0.47844732  0.69023636  0.34124527    -0.19800
C1747       C  0.38132790  0.56003976  0.34593838    -0.21200
C1748       C  0.44114026  0.56303200  0.33280515    -0.09300
C1749       C  0.49353641  0.56616728  0.35213071     0.29600
C1750       C  0.48626364  0.56587751  0.38389795    -0.21200
C1751       C  0.42683500  0.56243705  0.39714353    -0.09300
C1752       C  0.37403785  0.55966860  0.37771191     0.29600
F1753       F  0.31527419  0.55643294  0.38922118    -0.19800
H1754       H  0.34037547  0.55759279  0.33157719     0.18000
H1755       H  0.52741925  0.56829083  0.39813636     0.18000
F1756       F  0.55178840  0.56972127  0.34037823    -0.19800
C1757       C  0.46265462  0.50313611  0.24678897    -0.21200
C1758       C  0.41901466  0.51474870  0.23843747    -0.09300
C1759       C  0.35607931  0.51031186  0.23047863     0.29600
C1760       C  0.33764440  0.49470543  0.23116030    -0.21200
C1761       C  0.38117769  0.48309375  0.23957187    -0.09300
C1762       C  0.44419826  0.48750417  0.24742840     0.29600
F1763       F  0.48821812  0.47678243  0.25603154    -0.19800
H1764       H  0.51114230  0.50614823  0.25311777     0.18000
H1765       H  0.62043786  0.49189119  0.22716358     0.18000
F1766       F  0.31198368  0.52099051  0.22175259    -0.19800
C1767       C  0.56554117  0.61408983  0.24898648    -0.21200
C1768       C  0.50483018  0.60839024  0.24133020    -0.09300
C1769       C  0.45539314  0.61912555  0.23502564     0.29600
C1770       C  0.46709167  0.63510883  0.23605316    -0.21200
C1771       C  0.52813412  0.64075017  0.24306022    -0.09300
C1772       C  0.57721996  0.63005984  0.24991006     0.29600
F1773       F  0.63654430  0.63500729  0.25787285    -0.19800
H1774       H  0.60421837  0.60618178  0.25432438     0.18000
H1775       H  0.42865423  0.64307159  0.23061577     0.18000
F1776       F  0.39579679  0.61426877  0.22735653    -0.19800
C1777       C  0.48577495  0.68300934  0.84720725    -0.21200
C1778       C  0.42624842  0.68627355  0.83397553    -0.09300
C1779       C  0.37322428  0.68887958  0.85340715     0.29600
C1780       C  0.38032413  0.68846987  0.88516354    -0.21200
C1781       C  0.44016336  0.68560381  0.89828855    -0.09300
C1782       C  0.49287795  0.68270572  0.87897451     0.29600
F1783       F  0.55127962  0.67936721  0.89073945    -0.19800
H1784       H  0.52707664  0.68074017  0.83295289     0.18000
H1785       H  0.33918654  0.69077423  0.89952184     0.18000
F1786       F  0.31437680  0.69198073  0.84191438    -0.19800
C1787       C  0.35638807  0.73774290  0.00224200    -0.21200
C1788       C  0.41761425  0.73337379  0.99186796    -0.09300
C1789       C  0.45841979  0.74489462  0.98017090     0.29600
C1790       C  0.43825697  0.76036797  0.97900869    -0.21200
C1791       C  0.37696430  0.76473111  0.98929434    -0.09300
C1792       C  0.33619643  0.75321943  0.00105027     0.29600
F1793       F  0.60922701  0.75649105  0.00807470    -0.19800
H1794       H  0.32384515  0.72915016  0.01144599     0.18000
H1795       H  0.47081612  0.76895527  0.96979588     0.18000
F1796       F  0.51716676  0.74121646  0.96913759    -0.19800
C1797       C  0.56566279  0.68327240  0.09385808    -0.21200
C1798       C  0.50363881  0.68717413  0.08405025    -0.09300
C1799       C  0.45748445  0.69118622  0.10594954     0.29600
C1800       C  0.47328883  0.69132185  0.13699082    -0.21200
C1801       C  0.53533641  0.68739000  0.14695939    -0.09300
C1802       C  0.58139582  0.68325025  0.12496095     0.29600
F1803       F  0.64139242  0.67907133  0.13336885    -0.19800
H1804       H  0.60204291  0.68006186  0.07737015     0.18000
H1805       H  0.43658803  0.69459367  0.15325462     0.18000
F1806       F  0.39774366  0.69548685  0.09733720    -0.19800
C1807       C  0.54107245  0.56033945  0.87843225    -0.21200
C1808       C  0.59507009  0.56266603  0.89717501    -0.09300
C1809       C  0.65449889  0.56546848  0.88320842     0.29600
C1810       C  0.65966801  0.56557079  0.85135593    -0.21200
C1811       C  0.60586264  0.56305129  0.83268203    -0.09300
C1812       C  0.54620343  0.56058643  0.84655507     0.29600
F1813       F  0.49326147  0.55789134  0.82943391    -0.19800
H1814       H  0.49456603  0.55817140  0.88842334     0.18000
H1815       H  0.70616613  0.56764611  0.84125831     0.18000
F1816       F  0.70782523  0.56796827  0.90016625    -0.19800
C1817       C  0.47501181  0.55638694  0.09405328    -0.21200
C1818       C  0.53728735  0.55995214  0.08388123    -0.09300
C1819       C  0.58412499  0.56367135  0.10576691     0.29600
C1820       C  0.56878409  0.56374454  0.13693272    -0.21200
C1821       C  0.50636618  0.56035808  0.14694954    -0.09300
C1822       C  0.45960436  0.55662317  0.12517504     0.29600
F1823       F  0.39947885  0.55276615  0.13400085    -0.19800
H1824       H  0.43777185  0.55341910  0.07787862     0.18000
H1825       H  0.60574328  0.56668804  0.15328413     0.18000
F1826       F  0.64450912  0.56740965  0.09715874    -0.19800
C1827       C  0.45374437  0.62928825  0.99306317    -0.21200
C1828       C  0.50446281  0.63990396  0.98929532    -0.09300
C1829       C  0.56656862  0.63408974  0.98483600     0.29600
C1830       C  0.57756691  0.61810086  0.98499696    -0.21200
C1831       C  0.52709635  0.60749811  0.98923922    -0.09300
C1832       C  0.46473020  0.61325698  0.99290681     0.29600
F1833       F  0.41458909  0.60347741  0.99705101    -0.19800
H1834       H  0.40527659  0.63337506  0.99637553     0.18000
H1835       H  0.62605738  0.61402058  0.98168384     0.18000
F1836       F  0.61690661  0.64377758  0.98039016    -0.19800
C1837       C  0.54495557  0.18727605  0.84645938    -0.21200
C1838       C  0.59941050  0.18509566  0.82788466    -0.09300
C1839       C  0.65858594  0.18234183  0.84203339     0.29600
C1840       C  0.66313493  0.18224693  0.87391224    -0.21200
C1841       C  0.60895326  0.18475502  0.89241056    -0.09300
C1842       C  0.54946280  0.18704140  0.87834462     0.29600
F1843       F  0.49610570  0.18962014  0.89528184    -0.19800
H1844       H  0.49856327  0.18936576  0.83632835     0.18000
H1845       H  0.37583795  0.17929440  0.88460463     0.18000
F1846       F  0.37881790  0.17889028  0.82562807    -0.19800
C1847       C  0.49458817  0.05901458  0.87958386    -0.21200
C1848       C  0.43436128  0.06147260  0.89270356    -0.09300
C1849       C  0.38146973  0.06398636  0.87335476     0.29600
C1850       C  0.38902383  0.06395141  0.84157612    -0.21200
C1851       C  0.44916297  0.06128477  0.82836825    -0.09300
C1852       C  0.50210211  0.05881565  0.84783604     0.29600
F1853       F  0.56134198  0.05609672  0.83637534    -0.19800
H1854       H  0.53583534  0.05693473  0.89394840     0.18000
H1855       H  0.34767153  0.06601581  0.82729009     0.18000
F1856       F  0.32252470  0.06677228  0.88510137    -0.19800
C1857       C  0.36311081  0.01025047  0.72350953    -0.21200
C1858       C  0.42457958  0.01452345  0.73366031    -0.09300
C1859       C  0.46531242  0.00294131  0.74512488     0.29600
C1860       C  0.44477458  0.98750924  0.74641807    -0.21200
C1861       C  0.38322341  0.98323820  0.73642113    -0.09300
C1862       C  0.34259893  0.99479782  0.72475267     0.29600
F1863       F  0.61204687  0.99136941  0.71428054    -0.19800
H1864       H  0.33065832  0.01889675  0.71444801     0.18000
H1865       H  0.47727150  0.97887993  0.75550457     0.18000
F1866       F  0.52437671  0.00652282  0.75583016    -0.19800
C1867       C  0.46165655  0.11836027  0.73967668    -0.21200
C1868       C  0.51296466  0.10783124  0.73703222    -0.09300
C1869       C  0.57526762  0.11371128  0.73416649     0.29600
C1870       C  0.58558662  0.12972692  0.73350696    -0.21200
C1871       C  0.53429582  0.14029102  0.73584203    -0.09300
C1872       C  0.47202792  0.13441043  0.73920048     0.29600
F1873       F  0.42109867  0.14408567  0.74185424    -0.19800
H1874       H  0.41312148  0.11417618  0.74212746     0.18000
H1875       H  0.63421314  0.13383318  0.73099640     0.18000
F1876       F  0.62620068  0.10404873  0.73127040    -0.19800
C1877       C  0.65917761  0.06608839  0.37913514    -0.21200
C1878       C  0.60017243  0.06245300  0.39259249    -0.09300
C1879       C  0.54734501  0.05934769  0.37336644     0.29600
C1880       C  0.55412656  0.05965579  0.34159625    -0.21200
C1881       C  0.61346648  0.06289646  0.32825721    -0.09300
C1882       C  0.66596180  0.06629276  0.34734053     0.29600
F1883       F  0.72377515  0.07002603  0.33531038    -0.19800
H1884       H  0.70029445  0.06874441  0.39322534     0.18000
H1885       H  0.51318701  0.05695768  0.32740006     0.18000
F1886       F  0.48904157  0.05581635  0.38506973    -0.19800
C1887       C  0.48023944  0.05716931  0.58922932    -0.21200
C1888       C  0.54227758  0.06108867  0.57919451    -0.09300
C1889       C  0.58845767  0.06515601  0.60113320     0.29600
C1890       C  0.57295456  0.06502184  0.63226550    -0.21200
C1891       C  0.51096440  0.06111572  0.64215645    -0.09300
C1892       C  0.46462783  0.05721798  0.62031291     0.29600
F1893       F  0.40491918  0.05293207  0.62903266    -0.19800
H1894       H  0.44343871  0.05397291  0.57299099     0.18000
H1895       H  0.60946081  0.06816171  0.64871076     0.18000
F1896       F  0.64830914  0.06941443  0.59261070    -0.19800
C1897       C  0.38212188  0.18712667  0.34650124    -0.21200
C1898       C  0.43637557  0.18539253  0.32764190    -0.09300
C1899       C  0.49632118  0.18328363  0.34147808     0.29600
C1900       C  0.50171912  0.18338934  0.37334163    -0.21200
C1901       C  0.44763593  0.18544484  0.39212172    -0.09300
C1902       C  0.38747312  0.18708277  0.37834411     0.29600
F1903       F  0.33408679  0.18916049  0.39551453    -0.19800
H1904       H  0.33516541  0.18870599  0.33662294     0.18000
H1905       H  0.54858190  0.18186802  0.38335832     0.18000
F1906       F  0.54984576  0.18132085  0.32436522    -0.19800
C1907       C  0.44564767  0.26133253  0.47519354    -0.21200
C1908       C  0.38331536  0.26546130  0.48444023    -0.09300
C1909       C  0.34159394  0.25366036  0.49414217     0.29600
C1910       C  0.36188492  0.23817512  0.49447567    -0.21200
C1911       C  0.42423084  0.23404665  0.48528974    -0.09300
C1912       C  0.46593871  0.24584135  0.47551653     0.29600
F1913       F  0.52592479  0.24244190  0.46575116    -0.19800
H1914       H  0.47902257  0.27012264  0.46751954     0.18000
H1915       H  0.32851000  0.22938965  0.50216611     0.18000
F1916       F  0.28158875  0.25704932  0.50387896    -0.19800
C1917       C  0.46371242  0.18985107  0.59957673    -0.21200
C1918       C  0.51290611  0.18849444  0.57797055    -0.09300
C1919       C  0.57651621  0.18708743  0.58839413     0.29600
C1920       C  0.59004996  0.18693447  0.61972691    -0.21200
C1921       C  0.54083296  0.18833445  0.64137438    -0.09300
C1922       C  0.47724650  0.18987670  0.63087101     0.29600
F1923       F  0.42766379  0.19128355  0.65072765    -0.19800
H1924       H  0.41452355  0.19102506  0.59225027     0.18000
H1925       H  0.63923891  0.18571730  0.62701960     0.18000
F1926       F  0.62577059  0.18553344  0.56839206    -0.19800
C1927       C  0.58721475  0.11883171  0.48621856    -0.21200
C1928       C  0.53600657  0.10822092  0.48459277    -0.09300
C1929       C  0.47340534  0.11404182  0.48269804     0.29600
C1930       C  0.46265933  0.13007696  0.48271561    -0.21200
C1931       C  0.51389732  0.14066409  0.48449531    -0.09300
C1932       C  0.57649550  0.13484298  0.48613509     0.29600
F1933       F  0.62739124  0.14456079  0.48824170    -0.19800
H1934       H  0.63604978  0.11476271  0.48769850     0.18000
H1935       H  0.41390432  0.13419927  0.48125997     0.18000
F1936       F  0.42250997  0.10430695  0.48106528    -0.19800
C1937       C  0.58141545  0.30985380  0.09177434    -0.21200
C1938       C  0.52144601  0.31261755  0.07869092    -0.09300
C1939       C  0.46863545  0.31531906  0.09806436     0.29600
C1940       C  0.47582827  0.31497035  0.12983625    -0.21200
C1941       C  0.53555990  0.31186409  0.14301051    -0.09300
C1942       C  0.58860520  0.30938997  0.12351924     0.29600
F1943       F  0.64759177  0.30636451  0.13493880    -0.19800
H1944       H  0.62263117  0.30767351  0.07738914     0.18000
H1945       H  0.43446277  0.31710368  0.14413411     0.18000
F1946       F  0.41004287  0.31850883  0.08635711    -0.19800
C1947       C  0.60565042  0.26037698  0.97449306    -0.21200
C1948       C  0.54407537  0.26461975  0.98461313    -0.09300
C1949       C  0.50270889  0.25290678  0.99509106     0.29600
C1950       C  0.52284274  0.23740007  0.99550132    -0.21200
C1951       C  0.58459421  0.23317611  0.98556827    -0.09300
C1952       C  0.62573221  0.24487592  0.97484872     0.29600
F1953       F  0.35143500  0.24145671  0.96472246    -0.19800
H1954       H  0.63860000  0.26909277  0.96610563     0.18000
H1955       H  0.48989521  0.22867764  0.00386518     0.18000
F1956       F  0.44333136  0.25640719  0.00555966    -0.19800
C1957       C  0.30837836  0.43277792  0.09418949    -0.21200
C1958       C  0.36809308  0.43588436  0.08095616    -0.09300
C1959       C  0.42109264  0.43838828  0.10040080     0.29600
C1960       C  0.41389135  0.43797226  0.13214795    -0.21200
C1961       C  0.35396656  0.43523334  0.14529456    -0.09300
C1962       C  0.30114421  0.43251409  0.12597903     0.29600
F1963       F  0.57417064  0.43137975  0.13755735    -0.19800
H1964       H  0.59901376  0.43228669  0.07976055     0.18000
H1965       H  0.45500250  0.44021644  0.14650998     0.18000
F1966       F  0.48002079  0.44143418  0.08892459    -0.19800
C1967       C  0.58651699  0.50313527  0.98129394    -0.21200
C1968       C  0.62897573  0.51494725  0.98998335    -0.09300
C1969       C  0.69275690  0.51090998  0.99709060     0.29600
C1970       C  0.37918307  0.49541932  0.99548209    -0.21200
C1971       C  0.33649792  0.48355322  0.98733360    -0.09300
C1972       C  0.60674750  0.48767448  0.97971522     0.29600
F1973       F  0.56366308  0.47676683  0.97086240    -0.19800
H1974       H  0.53747715  0.50585666  0.97546176     0.18000
H1975       H  0.42840671  0.49273475  0.00101595     0.18000
F1976       F  0.73584405  0.52184048  0.00582411    -0.19800
C1977       C  0.50876116  0.36886413  0.98711050    -0.21200
C1978       C  0.45743541  0.35825321  0.98674752    -0.09300
C1979       C  0.39472290  0.36408229  0.98690465     0.29600
C1980       C  0.38394943  0.38008617  0.98737144    -0.21200
C1981       C  0.43517145  0.39071215  0.98774841    -0.09300
C1982       C  0.49793712  0.38491011  0.98766516     0.29600
F1983       F  0.54884493  0.39467756  0.98774937    -0.19800
H1984       H  0.55762550  0.36475619  0.98701521     0.18000
H1985       H  0.33499606  0.38414043  0.98739919     0.18000
F1986       F  0.34361728  0.35438027  0.98620695    -0.19800
C1987       C  0.31530139  0.31547413  0.62962533    -0.21200
C1988       C  0.37515541  0.31250536  0.64278985    -0.09300
C1989       C  0.42844649  0.31036951  0.62331593     0.29600
C1990       C  0.42126699  0.31090411  0.59154253    -0.21200
C1991       C  0.36107229  0.31343826  0.57847694    -0.09300
C1992       C  0.30812482  0.31592392  0.59789058     0.29600
F1993       F  0.58584012  0.32149110  0.58552879    -0.19800
H1994       H  0.27370424  0.31737434  0.64390497     0.18000
H1995       H  0.46264363  0.30894922  0.57713366     0.18000
F1996       F  0.48760669  0.30761698  0.63479071    -0.19800
C1997       C  0.38494968  0.25275217  0.72857903    -0.21200
C1998       C  0.34212959  0.26457977  0.73684051    -0.09300
C1999       C  0.60946021  0.26050562  0.74319087     0.29600
C2000       C  0.58960531  0.24500015  0.74212588    -0.21200
C2001       C  0.63281046  0.23312589  0.73466741    -0.09300
C2002       C  0.36506407  0.23724246  0.72748816     0.29600
F2003       F  0.40844149  0.22630236  0.71908684    -0.19800
H2004       H  0.43393258  0.25550332  0.72265856     0.18000
H2005       H  0.54023717  0.24229711  0.74735655     0.18000
F2006       F  0.56561801  0.27147246  0.75085370    -0.19800
C2007       C  0.39683553  0.31345069  0.88254609    -0.21200
C2008       C  0.45924393  0.31026753  0.89276673    -0.09300
C2009       C  0.50669931  0.30675402  0.87116364     0.29600
C2010       C  0.49200012  0.30655996  0.83999006    -0.21200
C2011       C  0.42973631  0.30993176  0.82961562    -0.09300
C2012       C  0.38218159  0.31340397  0.85132901     0.29600
F2013       F  0.32174845  0.31691497  0.84249548    -0.19800
H2014       H  0.35935096  0.31621516  0.89877519     0.18000
H2015       H  0.52975757  0.30376537  0.82393962     0.18000
F2016       F  0.56683272  0.30306959  0.88020580    -0.19800
C2017       C  0.47127054  0.43410847  0.62709349    -0.21200
C2018       C  0.52560068  0.43596425  0.64574948    -0.09300
C2019       C  0.58555192  0.43777478  0.63180983     0.29600
C2020       C  0.59057044  0.43797628  0.59993604    -0.21200
C2021       C  0.53616057  0.43625622  0.58122352    -0.09300
C2022       C  0.47630751  0.43419454  0.59522458     0.29600
F2023       F  0.42250322  0.43244581  0.57826733    -0.19800
H2024       H  0.42449250  0.43255081  0.63720506     0.18000
H2025       H  0.63735866  0.43962415  0.58991414     0.18000
F2026       F  0.63903719  0.43981949  0.64887298    -0.19800
C2027       C  0.60832637  0.48793196  0.74925210    -0.21200
C2028       C  0.54623109  0.48357172  0.74015970    -0.09300
C2029       C  0.50377922  0.49519736  0.73036644     0.29600
C2030       C  0.52312011  0.51075594  0.72989546    -0.21200
C2031       C  0.58524050  0.51510848  0.73897533    -0.09300
C2032       C  0.62769749  0.50347978  0.74873278     0.29600
F2033       F  0.68757808  0.50709642  0.75828998    -0.19800
H2034       H  0.64226221  0.47927688  0.75693211     0.18000
H2035       H  0.48923402  0.51941634  0.72218706     0.18000
F2036       F  0.44404598  0.49155942  0.72063474    -0.19800
C2037       C  0.50883076  0.43882029  0.85339791    -0.21200
C2038       C  0.46037209  0.43702709  0.83159924    -0.09300
C2039       C  0.39658325  0.43537492  0.84169671     0.29600
C2040       C  0.38196373  0.43574136  0.87289819    -0.21200
C2041       C  0.43030859  0.43780157  0.89472458    -0.09300
C2042       C  0.49423961  0.43927161  0.88457615     0.29600
F2043       F  0.54312402  0.44106215  0.90467174    -0.19800
H2044       H  0.55815324  0.44010030  0.84630151     0.18000
H2045       H  0.33263354  0.43441914  0.87994258     0.18000
F2046       F  0.34817771  0.43315291  0.82149944    -0.19800
C2047       C  0.50095804  0.36302315  0.74133995    -0.21200
C2048       C  0.43928016  0.35747115  0.73527992    -0.09300
C2049       C  0.38995105  0.36825887  0.72954128     0.29600
C2050       C  0.40212134  0.38420144  0.73035588    -0.21200
C2051       C  0.46354400  0.38980635  0.73688319    -0.09300
C2052       C  0.51311698  0.37899951  0.74231501     0.29600
F2053       F  0.57328355  0.38379085  0.74903227    -0.19800
H2054       H  0.53962091  0.35499428  0.74596561     0.18000
H2055       H  0.36320501  0.39216862  0.72581826     0.18000
F2056       F  0.32986987  0.36343986  0.72269593    -0.19800
C2057       C  0.63222571  0.81374844  0.10115849    -0.21200
C2058       C  0.35343050  0.81205179  0.08235529    -0.09300
C2059       C  0.41239175  0.80867853  0.09606371     0.29600
C2060       C  0.41780038  0.80846354  0.12787740    -0.21200
C2061       C  0.36473239  0.81166478  0.14674833    -0.09300
C2062       C  0.30571372  0.81509782  0.13295658     0.29600
F2063       F  0.58376259  0.81517417  0.15013292    -0.19800
H2064       H  0.58529478  0.81517959  0.09114525     0.18000
H2065       H  0.46380996  0.80565355  0.13771184     0.18000
F2066       F  0.46428833  0.80506644  0.07881296    -0.19800
C2067       C  0.58174728  0.74550736  0.24378808    -0.21200
C2068       C  0.62577468  0.73352470  0.23841220    -0.09300
C2069       C  0.69070200  0.73745492  0.23378399     0.29600
C2070       C  0.71060583  0.75295057  0.23490796    -0.21200
C2071       C  0.33385417  0.76485837  0.24047920    -0.09300
C2072       C  0.60162570  0.76101282  0.24480824     0.29600
F2073       F  0.55679095  0.77211143  0.24999980    -0.19800
H2074       H  0.53171864  0.74288301  0.24744245     0.18000
H2075       H  0.42765004  0.75542676  0.23110457     0.18000
F2076       F  0.73545788  0.72638308  0.22820822    -0.19800
C2077       C  0.47055799  0.93289004  0.12480024    -0.21200
C2078       C  0.52411151  0.93554425  0.14355486    -0.09300
C2079       C  0.58376214  0.93815087  0.12977484     0.29600
C2080       C  0.58911728  0.93838331  0.09789578    -0.21200
C2081       C  0.53534908  0.93590347  0.07906367    -0.09300
C2082       C  0.47594636  0.93299059  0.09295485     0.29600
F2083       F  0.42286411  0.93034997  0.07591671    -0.19800
H2084       H  0.42410059  0.93069581  0.13483230     0.18000
H2085       H  0.63560142  0.94065206  0.08797351     0.18000
F2086       F  0.63643975  0.94099484  0.14699320    -0.19800
C2087       C  0.52587938  0.01047777  0.22586503    -0.21200
C2088       C  0.58774336  0.01463017  0.23566013    -0.09300
C2089       C  0.62849980  0.00292469  0.24665641     0.29600
C2090       C  0.60786250  0.98747522  0.24744413    -0.21200
C2091       C  0.54613492  0.98331071  0.23747134    -0.09300
C2092       C  0.50522254  0.99503071  0.22667970     0.29600
F2093       F  0.44578549  0.99158833  0.21627216    -0.19800
H2094       H  0.49323592  0.01921013  0.21729567     0.18000
H2095       H  0.64049997  0.97874190  0.25601665     0.18000
F2096       F  0.68782893  0.00637710  0.25719541    -0.19800
C2097       C  0.50788887  0.87934565  0.23890042    -0.21200
C2098       C  0.45696803  0.88992771  0.23540072    -0.09300
C2099       C  0.39468942  0.88406995  0.23196492     0.29600
C2100       C  0.38383661  0.86806750  0.23266547    -0.21200
C2101       C  0.43458271  0.85750502  0.23662079    -0.09300
C2102       C  0.49701790  0.86331781  0.23942310     0.29600
F2103       F  0.54738217  0.85359824  0.24344064    -0.19800
H2104       H  0.55646964  0.88345834  0.24153818     0.18000
H2105       H  0.33526066  0.86394636  0.23007027     0.18000
F2106       F  0.34407026  0.89373459  0.22814935    -0.19800
C2107       C  0.58518824  0.80987840  0.59494807    -0.21200
C2108       C  0.52541725  0.81306158  0.58195948    -0.09300
C2109       C  0.47302797  0.81598862  0.60145201     0.29600
C2110       C  0.48032776  0.81544091  0.63319600    -0.21200
C2111       C  0.53975180  0.81190559  0.64629254    -0.09300
C2112       C  0.59247627  0.80921996  0.62671877     0.29600
F2113       F  0.65118040  0.80583390  0.63808687    -0.19800
H2114       H  0.62609533  0.80751940  0.58046801     0.18000
H2115       H  0.43920863  0.81776841  0.64754239     0.18000
F2116       F  0.41471484  0.81959299  0.58988770    -0.19800
C2117       C  0.49857248  0.75345882  0.49177890    -0.21200
C2118       C  0.54552505  0.76504409  0.48989152    -0.09300
C2119       C  0.61048362  0.76053426  0.48921677     0.29600
C2120       C  0.62745845  0.74484224  0.49004227    -0.21200
C2121       C  0.58055271  0.73325106  0.49173110    -0.09300
C2122       C  0.51558042  0.73774991  0.49268354     0.29600
F2123       F  0.46808991  0.72703057  0.49419506    -0.19800
H2124       H  0.44842637  0.75654671  0.49242417     0.18000
H2125       H  0.67762594  0.74177254  0.48941883     0.18000
F2126       F  0.65807832  0.77123429  0.48802431    -0.19800
C2127       C  0.49009111  0.80660894  0.34301022    -0.21200
C2128       C  0.42799824  0.81048943  0.33305546    -0.09300
C2129       C  0.38183953  0.81449276  0.35511533     0.29600
C2130       C  0.39753561  0.81446436  0.38623047    -0.21200
C2131       C  0.45967596  0.81068718  0.39605210    -0.09300
C2132       C  0.50585427  0.80672691  0.37410259     0.29600
F2133       F  0.56562720  0.80248572  0.38274079    -0.19800
H2134       H  0.52681926  0.80341981  0.32669780     0.18000
H2135       H  0.36105311  0.81761745  0.40270737     0.18000
F2136       F  0.32174948  0.81859161  0.34672425    -0.19800
C2137       C  0.31223028  0.93377552  0.59270387    -0.21200
C2138       C  0.37205815  0.93660763  0.57936573    -0.09300
C2139       C  0.42545667  0.93883937  0.59867061     0.29600
C2140       C  0.41857105  0.93833902  0.63043818    -0.21200
C2141       C  0.35856482  0.93577743  0.64369706    -0.09300
C2142       C  0.63867904  0.93289340  0.62413671     0.29600
F2143       F  0.57998814  0.92978670  0.63585570    -0.19800
H2144       H  0.60431503  0.93128687  0.57815391     0.18000
H2145       H  0.46006137  0.94030472  0.64471123     0.18000
F2146       F  0.48450036  0.94160718  0.58703495    -0.19800
C2147       C  0.38464041  0.99562933  0.49011080    -0.21200
C2148       C  0.33977222  0.98377316  0.48533195    -0.09300
C2149       C  0.60676557  0.98773097  0.48197562     0.29600
C2150       C  0.58740749  0.00328242  0.48277158    -0.21200
C2151       C  0.63211227  0.01523046  0.48700412    -0.09300
C2152       C  0.69723112  0.01122506  0.49055334     0.29600
F2153       F  0.74269244  0.02226529  0.49483852    -0.19800
H2154       H  0.43468162  0.99285566  0.49323617     0.18000
H2155       H  0.53720846  0.00597006  0.47995025     0.18000
F2156       F  0.56127628  0.97666332  0.47802139    -0.19800
C2157       C  0.50661595  0.93710356  0.35093443    -0.21200
C2158       C  0.45710332  0.93750020  0.32937173    -0.09300
C2159       C  0.39323740  0.93784121  0.33990306     0.29600
C2160       C  0.37980232  0.93783475  0.37125890    -0.21200
C2161       C  0.42942004  0.93762080  0.39279286    -0.09300
C2162       C  0.49322177  0.93721071  0.38223347     0.29600
F2163       F  0.54302921  0.93668455  0.40207828    -0.19800
H2164       H  0.55603438  0.93678157  0.34359689     0.18000
H2165       H  0.33043430  0.93813478  0.37867524     0.18000
F2166       F  0.34348563  0.93801815  0.32000563    -0.19800
C2167       C  0.49830598  0.88536865  0.48177183    -0.21200
C2168       C  0.43735878  0.89101238  0.48906739    -0.09300
C2169       C  0.38884291  0.88036563  0.49695098     0.29600
C2170       C  0.40099019  0.86441519  0.49686812    -0.21200
C2171       C  0.46160511  0.85869942  0.48899455    -0.09300
C2172       C  0.51044694  0.86939579  0.48153434     0.29600
F2173       F  0.56978066  0.86449751  0.47344848    -0.19800
H2174       H  0.53629167  0.89331312  0.47553871     0.18000
H2175       H  0.36274549  0.85653460  0.50303707     0.18000
F2176       F  0.32972017  0.88535075  0.50521546    -0.19800
O2177       O  0.65167348  0.95664343  0.48094104    -0.72900
O2178       O  0.69956507  0.91219841  0.48306583    -0.73800
O2179       O  0.66457103  0.93413958  0.52786656    -0.62500
O2180       O  0.69234963  0.93475873  0.43595316    -0.70900
O2181       O  0.79324802  0.94126082  0.44439750    -0.70400
O2182       O  0.76628264  0.94052972  0.53400161    -0.61700
O2183       O  0.80172048  0.91805106  0.49003128    -0.74200
O2184       O  0.75225183  0.96366842  0.48838976    -0.73000
Cu2185     Cu  0.67351309  0.93424371  0.48163536     1.04600
Cu2186     Cu  0.78188707  0.94114722  0.48938244     1.04300
C2187       C  0.69322647  0.96727086  0.48474788     0.93300
C2188       C  0.75711994  0.90793130  0.48729592     0.92500
C2189       C  0.71217970  0.93705472  0.54542374     0.84600
C2190       C  0.74845462  0.93789494  0.42584240     0.90900
O2191       O  0.86359382  0.83695310  0.48459032    -0.72900
O2192       O  0.90369526  0.79201639  0.48450937    -0.73800
O2193       O  0.86491766  0.81352502  0.43884139    -0.62500
O2194       O  0.89734210  0.81510757  0.53041884    -0.70900
O2195       O  0.79473543  0.80990447  0.53786035    -0.70400
O2196       O  0.76295232  0.80843907  0.44836440    -0.61700
O2197       O  0.80220263  0.78611495  0.49296215    -0.74200
O2198       O  0.76114595  0.83218000  0.49323227    -0.73000
Cu2199     Cu  0.88590123  0.81458006  0.48424634     1.04600
Cu2200     Cu  0.77670369  0.80894464  0.49336434     1.04300
C2201       C  0.80688453  0.84184898  0.48894830     0.93300
C2202       C  0.86047334  0.78188243  0.48910248     0.92500
C2203       C  0.80796372  0.81088000  0.42932499     0.84600
C2204       C  0.85011862  0.81275939  0.54854542     0.90900
O2205       O  0.76164575  0.94031426  0.27698446    -0.72900
O2206       O  0.79363224  0.93902968  0.18758634    -0.73800
O2207       O  0.75804398  0.91675030  0.23174456    -0.62500
O2208       O  0.80248859  0.96257861  0.23289634    -0.70900
O2209       O  0.90323277  0.95623937  0.24216694    -0.70400
O2210       O  0.86022505  0.91139232  0.23970558    -0.61700
O2211       O  0.89601455  0.93360796  0.19510023    -0.74200
O2212       O  0.86253999  0.93423720  0.28650076    -0.73000
Cu2213     Cu  0.77543569  0.93990039  0.23203809     1.04600
Cu2214     Cu  0.88403666  0.93368207  0.24119545     1.04300
C2215       C  0.80591730  0.93728705  0.29604163     0.93300
C2216       C  0.84904482  0.93610178  0.17695326     0.92500
C2217       C  0.80301544  0.90681782  0.23541352     0.84600
C2218       C  0.86071747  0.96657108  0.23759644     0.90900
O2219       O  0.79020861  0.80712549  0.28109304    -0.72900
O2220       O  0.75992757  0.80803767  0.19151543    -0.73800
O2221       O  0.79756957  0.83044215  0.23528553    -0.62500
O2222       O  0.74731576  0.78488913  0.23710797    -0.70900
O2223       O  0.64721312  0.79203562  0.24561062    -0.70400
O2224       O  0.69580123  0.83647501  0.24283497    -0.61700
O2225       O  0.65839022  0.81441484  0.19851595    -0.74200
O2226       O  0.68990065  0.81394319  0.29010856    -0.73000
Cu2227     Cu  0.77728101  0.80736755  0.23604290     1.04600
Cu2228     Cu  0.66935592  0.81442627  0.24462934     1.04300
C2229       C  0.74589417  0.81053386  0.29996441     0.93300
C2230       C  0.70524400  0.81139011  0.18056003     0.92500
C2231       C  0.75342386  0.84065967  0.23833223     0.84600
C2232       C  0.68835951  0.78136024  0.24124641     0.90900
O2233       O  0.76440810  0.44000707  0.77924213    -0.72900
O2234       O  0.79514471  0.43892647  0.68996639    -0.73800
O2235       O  0.76222168  0.41642495  0.73408811    -0.62500
O2236       O  0.80314716  0.46251775  0.73518205    -0.70900
O2237       O  0.90450548  0.45661675  0.74398829    -0.70400
O2238       O  0.86477411  0.41155379  0.74210204    -0.61700
O2239       O  0.89792892  0.43384081  0.69706737    -0.74200
O2240       O  0.86593064  0.43453115  0.78874559    -0.73000
Cu2241     Cu  0.77772883  0.43968637  0.73438299     1.04600
Cu2242     Cu  0.88687865  0.43396557  0.74329739     1.04300
C2243       C  0.80897938  0.43723682  0.79826471     0.93300
C2244       C  0.85046058  0.43616498  0.67910288     0.92500
C2245       C  0.80799393  0.40669935  0.73778333     0.84600
C2246       C  0.86119009  0.46677028  0.73958057     0.90900
O2247       O  0.76833341  0.30820824  0.68789353    -0.72900
O2248       O  0.79331627  0.30673488  0.77778292    -0.73800
O2249       O  0.75364467  0.28467684  0.73299387    -0.62500
O2250       O  0.80272068  0.33041451  0.73291683    -0.70900
O2251       O  0.70030626  0.33617399  0.73919262    -0.70400
O2252       O  0.65298491  0.29165540  0.74044292    -0.61700
O2253       O  0.69242218  0.31338282  0.78575534    -0.74200
O2254       O  0.66633321  0.31439098  0.69375669    -0.73000
Cu2255     Cu  0.78303306  0.30725255  0.73268046     1.04600
Cu2256     Cu  0.67449593  0.31409005  0.74005816     1.04300
C2257       C  0.71433474  0.31163196  0.67630232     0.93300
C2258       C  0.74798374  0.31000099  0.79617719     0.92500
C2259       C  0.69467811  0.28103964  0.73677392     0.84600
C2260       C  0.75800780  0.34051391  0.73571739     0.90900
O2261       O  0.65012658  0.45654884  0.98244392    -0.72900
O2262       O  0.69688637  0.41200632  0.98378197    -0.73800
O2263       O  0.66106179  0.43379494  0.02920580    -0.62500
O2264       O  0.69172461  0.43486230  0.93733902    -0.70900
O2265       O  0.79223238  0.44136969  0.94662795    -0.70400
O2266       O  0.76280735  0.43997065  0.03592429    -0.61700
O2267       O  0.79885700  0.41772132  0.99139202    -0.74200
O2268       O  0.75046559  0.46348717  0.99087982    -0.73000
Cu2269     Cu  0.67139454  0.43411866  0.98289023     1.04600
Cu2270     Cu  0.77956335  0.44089288  0.99145683     1.04300
C2271       C  0.69167158  0.46714165  0.98663477     0.93300
C2272       C  0.75441919  0.40762607  0.98772312     0.92500
C2273       C  0.70837692  0.43656747  0.04705503     0.84600
C2274       C  0.74810957  0.43808958  0.92767382     0.90900
O2275       O  0.79031576  0.30906630  0.03422722    -0.72900
O2276       O  0.76020878  0.30791599  0.94459733    -0.73800
O2277       O  0.79882069  0.28541609  0.98885544    -0.62500
O2278       O  0.75711055  0.33145062  0.98984979    -0.70900
O2279       O  0.85961881  0.33656024  0.98210118    -0.70400
O2280       O  0.90023033  0.29145304  0.98041370    -0.61700
O2281       O  0.86209513  0.31337669  0.93562598    -0.74200
O2282       O  0.89303084  0.31430882  0.02716095    -0.73000
Cu2283     Cu  0.77308519  0.30824451  0.98963828     1.04600
Cu2284     Cu  0.88230008  0.31410706  0.98101662     1.04300
C2285       C  0.84551283  0.31195223  0.04509682     0.93300
C2286       C  0.80551950  0.31055723  0.92583020     0.92500
C2287       C  0.85699097  0.28123818  0.98451332     0.84600
C2288       C  0.80251897  0.34127834  0.98628071     0.90900
O2289       O  0.77589660  0.18540984  0.53543553    -0.72900
O2290       O  0.74278712  0.18392124  0.44405140    -0.73800
O2291       O  0.77808874  0.16212388  0.48938071    -0.62500
O2292       O  0.73567241  0.20707530  0.49029832    -0.70900
O2293       O  0.83654929  0.21328902  0.48100197    -0.70400
O2294       O  0.88028531  0.16738599  0.48110582    -0.61700
O2295       O  0.84510297  0.18932646  0.43630523    -0.74200
O2296       O  0.87702068  0.19125577  0.52576952    -0.73000
Cu2297     Cu  0.75457074  0.18446262  0.49013586     1.04600
Cu2298     Cu  0.86325158  0.19054969  0.48077908     1.04300
C2299       C  0.83259475  0.18840132  0.54489651     0.93300
C2300       C  0.78979144  0.18621815  0.42578099     0.92500
C2301       C  0.83522711  0.15749776  0.48500927     0.84600
C2302       C  0.77832673  0.21736066  0.48553819     0.90900
O2303       O  0.88627010  0.03538714  0.48358837    -0.72900
O2304       O  0.83883622  0.08114158  0.48205671    -0.73800
O2305       O  0.87453594  0.05864399  0.43806522    -0.62500
O2306       O  0.84495117  0.05775170  0.52747779    -0.70900
O2307       O  0.94569649  0.06418737  0.53639318    -0.70400
O2308       O  0.97634835  0.06481830  0.44453927    -0.61700
O2309       O  0.94089878  0.08684155  0.48949132    -0.74200
O2310       O  0.98684718  0.04224160  0.49159787    -0.73000
Cu2311     Cu  0.85766268  0.05798544  0.48256238     1.04600
Cu2312     Cu  0.96599708  0.06470853  0.49082691     1.04300
C2313       C  0.94505594  0.03168026  0.48763580     0.93300
C2314       C  0.88342759  0.09122310  0.48536829     0.92500
C2315       C  0.92895198  0.06196195  0.42680303     0.84600
C2316       C  0.88944644  0.06100586  0.54628286     0.90900
O2317       O  0.77010641  0.06387743  0.68529493    -0.72900
O2318       O  0.73960590  0.06417058  0.77714524    -0.73800
O2319       O  0.77465288  0.08656437  0.73267490    -0.62500
O2320       O  0.72990669  0.04171377  0.72960751    -0.70900
O2321       O  0.83115478  0.03529675  0.73733944    -0.70400
O2322       O  0.87686537  0.08099091  0.74011743    -0.61700
O2323       O  0.84165431  0.05819551  0.78345833    -0.74200
O2324       O  0.87169184  0.05802620  0.69404926    -0.73000
Cu2325     Cu  0.74996862  0.06428422  0.73086263     1.04600
Cu2326     Cu  0.85878611  0.05788868  0.73896965     1.04300
C2327       C  0.82668002  0.06104867  0.67540720     0.93300
C2328       C  0.78702192  0.06124287  0.79480390     0.92500
C2329       C  0.83209596  0.09100943  0.73686294     0.84600
C2330       C  0.77264095  0.03134692  0.73338846     0.90900
O2331       O  0.97462792  0.18321820  0.77652675    -0.72900
O2332       O  0.94605503  0.18465114  0.68461592    -0.73800
O2333       O  0.98680995  0.20612970  0.73019606    -0.62500
O2334       O  0.93943107  0.16156268  0.73091745    -0.70900
O2335       O  0.83757168  0.16735215  0.73871184    -0.70400
O2336       O  0.88623203  0.21305124  0.73811863    -0.61700
O2337       O  0.84522234  0.19099525  0.69362321    -0.74200
O2338       O  0.87295177  0.18956819  0.78310707    -0.73000
Cu2339     Cu  0.96527031  0.18369056  0.73024802     1.04600
Cu2340     Cu  0.85699907  0.19048985  0.73858979     1.04300
C2341       C  0.92721331  0.18605975  0.79429187     0.93300
C2342       C  0.88992928  0.18795340  0.67476710     0.92500
C2343       C  0.94514220  0.21671509  0.73427066     0.84600
C2344       C  0.88194097  0.15722034  0.73525249     0.90900
O2345       O  0.96980554  0.56465177  0.94878446    -0.72900
O2346       O  0.94086626  0.56366183  0.04056075    -0.73800
O2347       O  0.98241396  0.54200339  0.99544440    -0.62500
O2348       O  0.93361738  0.58641491  0.99393099    -0.70900
O2349       O  0.83164325  0.58041794  0.98700689    -0.70400
O2350       O  0.88219160  0.53485805  0.98732692    -0.61700
O2351       O  0.84045546  0.55680205  0.03199636    -0.74200
O2352       O  0.86814521  0.55830106  0.94227123    -0.73000
Cu2353     Cu  0.96017380  0.56438556  0.99499233     1.04600
Cu2354     Cu  0.85208580  0.55733617  0.98693630     1.04300
C2355       C  0.92252664  0.56174362  0.93103910     0.93300
C2356       C  0.88511320  0.56017994  0.05065490     0.92500
C2357       C  0.94119354  0.53133091  0.99128348     0.84600
C2358       C  0.87582554  0.59061871  0.99010212     0.90900
O2359       O  0.73553476  0.68356545  0.94946098    -0.72900
O2360       O  0.76714576  0.68465709  0.04103462    -0.73800
O2361       O  0.72824572  0.70648645  0.99603802    -0.62500
O2362       O  0.76967413  0.66148813  0.99461879    -0.70900
O2363       O  0.87194747  0.66665991  0.98635340    -0.70400
O2364       O  0.82963531  0.71255715  0.98764282    -0.61700
O2365       O  0.86899703  0.69005326  0.03179351    -0.74200
O2366       O  0.83797447  0.68903037  0.94226506    -0.73000
Cu2367     Cu  0.74657776  0.68387315  0.99562414     1.04600
Cu2368     Cu  0.85564221  0.68980624  0.98677460     1.04300
C2369       C  0.78287729  0.68599036  0.93144707     0.93300
C2370       C  0.82393738  0.68736895  0.05067456     0.92500
C2371       C  0.77138434  0.71670406  0.99176792     0.84600
C2372       C  0.82671238  0.65681211  0.99010300     0.90900
O2373       O  0.76708031  0.56344212  0.18952161    -0.72900
O2374       O  0.73471521  0.56488652  0.28101549    -0.73800
O2375       O  0.76894558  0.58673919  0.23555622    -0.62500
O2376       O  0.72765326  0.54184656  0.23467906    -0.70900
O2377       O  0.82884187  0.53566258  0.24300343    -0.70400
O2378       O  0.87118561  0.58179712  0.24429858    -0.61700
O2379       O  0.83707763  0.55939933  0.28843252    -0.74200
O2380       O  0.86895263  0.55820119  0.19894927    -0.73000
Cu2381     Cu  0.74610729  0.56440178  0.23486914     1.04600
Cu2382     Cu  0.85508819  0.55852997  0.24393300     1.04300
C2383       C  0.82397229  0.56072667  0.17998017     0.93300
C2384       C  0.78190995  0.56253225  0.29911098     0.92500
C2385       C  0.82562993  0.59155254  0.24025785     0.84600
C2386       C  0.77051159  0.53156169  0.23872130     0.90900
O2387       O  0.83069504  0.66785913  0.24438395    -0.72900
O2388       O  0.88075740  0.71349853  0.24214193    -0.73800
O2389       O  0.83999474  0.69101300  0.19850917    -0.62500
O2390       O  0.86577519  0.69052606  0.28825708    -0.70900
O2391       O  0.96762113  0.68417833  0.28246813    -0.70400
O2392       O  0.94052637  0.68412242  0.19031532    -0.61700
O2393       O  0.98115445  0.70631417  0.23465386    -0.74200
O2394       O  0.93296410  0.66190266  0.23813107    -0.73000
Cu2395     Cu  0.85080530  0.69098597  0.24352198     1.04600
Cu2396     Cu  0.95909934  0.68393017  0.23610910     1.04300
C2397       C  0.87522643  0.65768631  0.24198112     0.93300
C2398       C  0.93977681  0.71701700  0.23811218     0.92500
C2399       C  0.88483822  0.68751598  0.18001987     0.84600
C2400       C  0.91974726  0.68714239  0.29989331     0.90900
O2401       O  0.93326928  0.94023209  0.77754061    -0.72900
O2402       O  0.96294286  0.93870594  0.68804398    -0.73800
O2403       O  0.93032948  0.91654768  0.73279304    -0.62500
O2404       O  0.97135853  0.96250844  0.73267709    -0.70900
O2405       O  0.73687736  0.95667783  0.74130593    -0.70400
O2406       O  0.03286518  0.91149272  0.74053142    -0.61700
O2407       O  0.73095449  0.93365429  0.69502490    -0.74200
O2408       O  0.69904815  0.93485002  0.78660329    -0.73000
Cu2409     Cu  0.94597718  0.93971577  0.73253582     1.04600
Cu2410     Cu  0.71979163  0.93402136  0.74116910     1.04300
C2411       C  0.97839416  0.93758608  0.79636547     0.93300
C2412       C  0.68352038  0.93595082  0.67704662     0.92500
C2413       C  0.97577811  0.90675464  0.73650529     0.84600
C2414       C  0.69346861  0.96680305  0.73681595     0.90900
O2415       O  0.86908813  0.83634950  0.74247252    -0.72900
O2416       O  0.81998714  0.79203026  0.74536229    -0.73800
O2417       O  0.86158556  0.81399450  0.78974180    -0.62500
O2418       O  0.83297888  0.81429203  0.69792685    -0.70900
O2419       O  0.93440763  0.80769645  0.69155007    -0.70400
O2420       O  0.96210612  0.80715398  0.78133107    -0.61700
O2421       O  0.92014523  0.78470205  0.73767089    -0.74200
O2422       O  0.97092961  0.83029845  0.73534649    -0.73000
Cu2423     Cu  0.84243740  0.81436811  0.74416895     1.04600
Cu2424     Cu  0.95043844  0.80719651  0.73626196     1.04300
C2425       C  0.92680858  0.84053328  0.73834277     0.93300
C2426       C  0.86104673  0.78127189  0.74173924     0.92500
C2427       C  0.91735529  0.81062511  0.79991103     0.84600
C2428       C  0.88023882  0.81119646  0.68022923     0.90900
O2429       O  0.96054732  0.94097197  0.94452046    -0.72900
O2430       O  0.93098615  0.94002191  0.03415891    -0.73800
O2431       O  0.96774529  0.91761203  0.99020476    -0.62500
O2432       O  0.91824120  0.96323912  0.98855472    -0.70900
O2433       O  0.81797707  0.95618704  0.98028427    -0.70400
O2434       O  0.86596569  0.91173510  0.98248797    -0.61700
O2435       O  0.82945477  0.93365801  0.02725148    -0.74200
O2436       O  0.86003797  0.93434668  0.93555206    -0.73000
Cu2437     Cu  0.94790612  0.94071858  0.98956792     1.04600
Cu2438     Cu  0.83987307  0.93378242  0.98106671     1.04300
C2439       C  0.91613975  0.93766213  0.92567616     0.93300
C2440       C  0.87640059  0.93660347  0.04517838     0.92500
C2441       C  0.92346129  0.90745102  0.98691991     0.84600
C2442       C  0.85933864  0.96682688  0.98443903     0.90900
O2443       O  0.96042180  0.80919413  0.03772529    -0.72900
O2444       O  0.93107864  0.80788783  0.94809707    -0.73800
O2445       O  0.96969911  0.78557940  0.99273036    -0.62500
O2446       O  0.92692347  0.83141035  0.99311575    -0.70900
O2447       O  0.02951993  0.83660911  0.98573845    -0.70400
O2448       O  0.73544823  0.79152443  0.98431397    -0.61700
O2449       O  0.69732995  0.81345390  0.93938681    -0.74200
O2450       O  0.72666538  0.81426410  0.03096050    -0.73000
Cu2451     Cu  0.94350856  0.80829177  0.99315275     1.04600
Cu2452     Cu  0.71677563  0.81411001  0.98484938     1.04300
C2453       C  0.67906938  0.81176134  0.04875548     0.93300
C2454       C  0.97635191  0.81069220  0.92939657     0.92500
C2455       C  0.69241605  0.78127893  0.98854056     0.84600
C2456       C  0.97223596  0.84125702  0.98962372     0.90900
O2457       O  0.99597129  0.53580459  0.74282144    -0.72900
O2458       O  0.70387232  0.58191458  0.74426100    -0.73800
O2459       O  0.00335209  0.55926684  0.78843822    -0.62500
O2460       O  0.70204378  0.55838245  0.69904124    -0.70900
O2461       O  0.93418318  0.56379257  0.68964278    -0.70400
O2462       O  0.90077895  0.56453565  0.78108437    -0.61700
O2463       O  0.93531584  0.58684588  0.73629040    -0.74200
O2464       O  0.89463476  0.54178251  0.73413157    -0.73000
Cu2465     Cu  0.02173726  0.55859175  0.74398165     1.04600
Cu2466     Cu  0.91267190  0.56442112  0.73495227     1.04300
C2467       C  0.93789458  0.53159548  0.73837015     0.93300
C2468       C  0.99223840  0.59159055  0.74080520     0.92500
C2469       C  0.94794067  0.56211299  0.79915876     0.84600
C2470       C  0.99106274  0.56106533  0.68007909     0.90900
O2471       O  0.71423878  0.71383654  0.74323973    -0.72900
O2472       O  0.99571582  0.66811444  0.74424977    -0.73800
O2473       O  0.69961758  0.69043929  0.78847697    -0.62500
O2474       O  0.67137712  0.69178960  0.69889932    -0.70900
O2475       O  0.77160254  0.68482818  0.69009011    -0.70400
O2476       O  0.80109301  0.68392272  0.78196655    -0.61700
O2477       O  0.76458121  0.66220092  0.73685573    -0.74200
O2478       O  0.81418888  0.70648163  0.73506127    -0.73000
Cu2479     Cu  0.68346868  0.69134699  0.74388463     1.04600
Cu2480     Cu  0.79135487  0.68416309  0.73568215     1.04300
C2481       C  0.77337700  0.71724641  0.73918140     0.93300
C2482       C  0.70682586  0.65800518  0.74076180     0.92500
C2483       C  0.75374372  0.68686492  0.79972164     0.84600
C2484       C  0.71572411  0.68829050  0.68013482     0.90900
O2485       O  0.77344727  0.56394469  0.54032918    -0.72900
O2486       O  0.80078601  0.56479209  0.44833570    -0.73800
O2487       O  0.76573672  0.58659743  0.49345023    -0.62500
O2488       O  0.81402011  0.54222813  0.49514877    -0.70900
O2489       O  0.71359314  0.53510370  0.48756361    -0.70400
O2490       O  0.99659474  0.58083185  0.48680421    -0.61700
O2491       O  0.69907428  0.55839966  0.44227835    -0.74200
O2492       O  0.00610993  0.55738359  0.53212264    -0.73000
Cu2493     Cu  0.79200012  0.56458921  0.49462315     1.04600
Cu2494     Cu  0.68373194  0.55758603  0.48698327     1.04300
C2495       C  0.71776565  0.56052148  0.55060329     0.93300
C2496       C  0.75314236  0.56187893  0.43079469     0.92500
C2497       C  0.70806289  0.59082824  0.48950530     0.84600
C2498       C  0.77265230  0.53156868  0.49126527     0.90900
O2499       O  0.92908187  0.68494483  0.54150152    -0.72900
O2500       O  0.89840025  0.68370487  0.44969145    -0.73800
O2501       O  0.93234101  0.66175271  0.49516041    -0.62500
O2502       O  0.88999161  0.70659634  0.49619271    -0.70900
O2503       O  0.99148643  0.71274976  0.48846400    -0.70400
O2504       O  0.70157779  0.66666037  0.48650861    -0.61700
O2505       O  0.00077757  0.68933941  0.44283413    -0.74200
O2506       O  0.03108214  0.69019155  0.53232334    -0.73000
Cu2507     Cu  0.90889879  0.68406171  0.49596475     1.04600
Cu2508     Cu  0.01800120  0.69001122  0.48735660     1.04300
C2509       C  0.98589836  0.68761708  0.55118108     0.93300
C2510       C  0.94591281  0.68624490  0.43182634     0.92500
C2511       C  0.98923372  0.65702179  0.49061221     0.84600
C2512       C  0.93303701  0.71684826  0.49226435     0.90900
O2513       O  0.86334885  0.41232328  0.48419037    -0.72900
O2514       O  0.81588318  0.45678170  0.48272801    -0.73800
O2515       O  0.85757622  0.43516251  0.43761745    -0.62500
O2516       O  0.82746948  0.43410849  0.52938808    -0.70900
O2517       O  0.92916813  0.44037778  0.53608749    -0.70400
O2518       O  0.95814388  0.44171870  0.44670161    -0.61700
O2519       O  0.91618543  0.46381038  0.49098840    -0.74200
O2520       O  0.96537983  0.41811997  0.49161270    -0.73000
Cu2521     Cu  0.83754215  0.43440228  0.48315764     1.04600
Cu2522     Cu  0.94572448  0.44126664  0.49157541     1.04300
C2523       C  0.92087410  0.40800786  0.48831540     0.93300
C2524       C  0.85727101  0.46740365  0.48692924     0.92500
C2525       C  0.91383662  0.43842450  0.42784848     0.84600
C2526       C  0.87470401  0.43696039  0.54721106     0.90900
O2527       O  0.74070615  0.29225590  0.47961558    -0.72900
O2528       O  0.69784404  0.33714056  0.48121781    -0.73800
O2529       O  0.73377739  0.31518737  0.52634179    -0.62500
O2530       O  0.69949252  0.31399771  0.43489246    -0.70900
O2531       O  0.93077158  0.30833594  0.44494806    -0.70400
O2532       O  0.63137425  0.30984103  0.53410032    -0.61700
O2533       O  0.92727760  0.33200646  0.49011013    -0.74200
O2534       O  0.63991232  0.28603016  0.48907920    -0.73000
Cu2535     Cu  0.72149425  0.31482860  0.48017444     1.04600
Cu2536     Cu  0.94475280  0.30879307  0.48982919     1.04300
C2537       C  0.69808404  0.28196186  0.48428643     0.93300
C2538       C  0.97243956  0.34188955  0.48627267     0.92500
C2539       C  0.68671328  0.31288913  0.54459562     0.84600
C2540       C  0.64259899  0.31102982  0.42564875     0.90900
O2541       O  0.95884396  0.43904994  0.18994525    -0.72900
O2542       O  0.92849655  0.44034940  0.27929798    -0.73800
O2543       O  0.96960295  0.46257710  0.23534342    -0.62500
O2544       O  0.92331970  0.41678852  0.23407076    -0.70900
O2545       O  0.69186526  0.41140617  0.24174144    -0.70400
O2546       O  0.73642069  0.45619703  0.24361570    -0.61700
O2547       O  0.69621538  0.43436581  0.28847295    -0.74200
O2548       O  0.72672489  0.43342644  0.19669825    -0.73000
Cu2549     Cu  0.94157802  0.43993363  0.23442325     1.04600
Cu2550     Cu  0.71635042  0.43365710  0.24293875     1.04300
C2551       C  0.67930251  0.43599781  0.17883425     0.93300
C2552       C  0.97292998  0.43737868  0.29828040     0.92500
C2553       C  0.69409161  0.46662663  0.23962512     0.84600
C2554       C  0.96806433  0.40678242  0.23764033     0.90900
O2555       O  0.86237799  0.33602023  0.23951623    -0.72900
O2556       O  0.81836228  0.29123778  0.24179758    -0.73800
O2557       O  0.85849905  0.31330185  0.28650491    -0.62500
O2558       O  0.82771457  0.31381878  0.19462412    -0.70900
O2559       O  0.92982241  0.30798461  0.18790121    -0.70400
O2560       O  0.95936568  0.30707853  0.27727171    -0.61700
O2561       O  0.91922020  0.28470146  0.23324456    -0.74200
O2562       O  0.96465467  0.33050648  0.23204754    -0.73000
Cu2563     Cu  0.83814854  0.31377893  0.24092579     1.04600
Cu2564     Cu  0.94673348  0.30733629  0.23237949     1.04300
C2565       C  0.91978103  0.34050252  0.23548951     0.93300
C2566       C  0.86072128  0.28082293  0.23751325     0.92500
C2567       C  0.91497173  0.31023532  0.29621569     0.84600
C2568       C  0.87510268  0.31106855  0.17676682     0.90900
O2569       O  0.71732531  0.03490008  0.98380382    -0.72900
O2570       O  0.66948362  0.08062892  0.98168392    -0.73800
O2571       O  0.70445825  0.05805525  0.93781366    -0.62500
O2572       O  0.67661905  0.05756852  0.02756363    -0.70900
O2573       O  0.77791092  0.06384200  0.03596560    -0.70400
O2574       O  0.80671752  0.06400786  0.94416870    -0.61700
O2575       O  0.77178017  0.08637408  0.98851604    -0.74200
O2576       O  0.81799696  0.04177284  0.99152960    -0.73000
Cu2577     Cu  0.68844338  0.05752666  0.98251241     1.04600
Cu2578     Cu  0.79712003  0.06420211  0.99035386     1.04300
C2579       C  0.77617448  0.03120269  0.98778711     0.93300
C2580       C  0.71422487  0.09070910  0.98441765     0.92500
C2581       C  0.75905128  0.06124576  0.92657065     0.84600
C2582       C  0.72175080  0.06077322  0.04606028     0.90900
O2583       O  0.70694888  0.16661441  0.98109075    -0.72900
O2584       O  0.66240522  0.21251249  0.98144826    -0.73800
O2585       O  0.70311858  0.19038357  0.02597987    -0.62500
O2586       O  0.67169956  0.18867730  0.93666853    -0.70900
O2587       O  0.90310149  0.18337884  0.94422909    -0.70400
O2588       O  0.93560121  0.18449810  0.03583477    -0.61700
O2589       O  0.89465417  0.20630713  0.99089273    -0.74200
O2590       O  0.93872809  0.16148745  0.98937055    -0.73000
Cu2591     Cu  0.68952372  0.18979044  0.98104949     1.04600
Cu2592     Cu  0.91445704  0.18373909  0.99042134     1.04300
C2593       C  0.66181883  0.15673960  0.98499830     0.93300
C2594       C  0.93708253  0.21664370  0.98614252     0.92500
C2595       C  0.65886622  0.18747784  0.04515656     0.84600
C2596       C  0.95036674  0.18578681  0.92615332     0.90900
O2597       O  0.00118412  0.03489741  0.23921148    -0.72900
O2598       O  0.71059213  0.08100384  0.23884217    -0.73800
O2599       O  0.01212088  0.05871280  0.28394952    -0.62500
O2600       O  0.70569989  0.05715928  0.19423623    -0.70900
O2601       O  0.93936202  0.06319492  0.18554068    -0.70400
O2602       O  0.90952516  0.06413640  0.27723531    -0.61700
O2603       O  0.94327574  0.08611523  0.23205749    -0.74200
O2604       O  0.90022901  0.04127916  0.23061200    -0.73000
Cu2605     Cu  0.02839319  0.05758166  0.23931369     1.04600
Cu2606     Cu  0.91954409  0.06384575  0.23105085     1.04300
C2607       C  0.94272706  0.03093279  0.23509837     0.93300
C2608       C  0.00066147  0.09067330  0.23576949     0.92500
C2609       C  0.95726881  0.06181764  0.29502161     0.84600
C2610       C  0.99555773  0.06009471  0.17549753     0.90900
O2611       O  0.67036254  0.16720484  0.23879005    -0.72900
O2612       O  0.71777091  0.21286618  0.23834586    -0.73800
O2613       O  0.67578619  0.19082551  0.19387017    -0.62500
O2614       O  0.70708431  0.18930695  0.28323736    -0.70900
O2615       O  0.80885804  0.18330831  0.27579930    -0.70400
O2616       O  0.77636618  0.18449351  0.18415610    -0.61700
O2617       O  0.81826622  0.20619908  0.22922550    -0.74200
O2618       O  0.77223250  0.16153354  0.23059073    -0.73000
Cu2619     Cu  0.68928187  0.19030062  0.23880070     1.04600
Cu2620     Cu  0.79748448  0.18369580  0.22959467     1.04300
C2621       C  0.71482842  0.15714096  0.23500178     0.93300
C2622       C  0.77633091  0.21666438  0.23397764     0.92500
C2623       C  0.71980864  0.18766346  0.17471001     0.84600
C2624       C  0.76197906  0.18599282  0.29397726     0.90900
C2625       C  0.96226256  0.11817760  0.23635190    -0.21200
C2626       C  0.01365763  0.10759131  0.23626823    -0.09300
C2627       C  0.74151512  0.11362402  0.23579473     0.29600
C2628       C  0.75243746  0.12962172  0.23561266    -0.21200
C2629       C  0.70124794  0.14025487  0.23573291    -0.09300
C2630       C  0.97297097  0.13420168  0.23626202     0.29600
F2631       F  0.92192049  0.14392889  0.23608145    -0.19800
H2632       H  0.91338061  0.11407386  0.23643368     0.18000
H2633       H  0.80139557  0.13366680  0.23532826     0.18000
F2634       F  0.79248010  0.10387266  0.23536246    -0.19800
C2635       C  0.62562371  0.18783171  0.10022444    -0.21200
C2636       C  0.67451582  0.18743433  0.07828864    -0.09300
C2637       C  0.73863680  0.18693562  0.08837141     0.29600
C2638       C  0.75299881  0.18695874  0.11961477    -0.21200
C2639       C  0.70413338  0.18756505  0.14156075    -0.09300
C2640       C  0.63998351  0.18794571  0.13146437     0.29600
F2641       F  0.92450867  0.18737337  0.15181618    -0.19800
H2642       H  0.90961769  0.18754650  0.09335904     0.18000
H2643       H  0.80259570  0.18656504  0.12661417     0.18000
F2644       F  0.78776339  0.18618382  0.06812251    -0.19800
C2645       C  0.97899105  0.06443385  0.08925693    -0.21200
C2646       C  0.70739774  0.06098327  0.07919728    -0.09300
C2647       C  0.75424964  0.05741033  0.10100004     0.29600
C2648       C  0.73862223  0.05712677  0.13211900    -0.21200
C2649       C  0.01024196  0.06031681  0.14221300    -0.09300
C2650       C  0.96363681  0.06426506  0.12040637     0.29600
F2651       F  0.90341543  0.06812107  0.12908649    -0.19800
H2652       H  0.94206461  0.06745404  0.07296026     0.18000
H2653       H  0.77577338  0.05419458  0.14834709     0.18000
F2654       F  0.81447779  0.05363894  0.09217419    -0.19800
C2655       C  0.97266350  0.11311867  0.98986829    -0.21200
C2656       C  0.70020449  0.10753550  0.98319229    -0.09300
C2657       C  0.74878686  0.11835644  0.97637815     0.29600
C2658       C  0.73606972  0.13429255  0.97697465    -0.21200
C2659       C  0.67478681  0.13979972  0.98426333    -0.09300
C2660       C  0.96002512  0.12904986  0.99062203     0.29600
F2661       F  0.90010727  0.13372942  0.99817684    -0.19800
H2662       H  0.93459189  0.10505967  0.99536651     0.18000
H2663       H  0.77435022  0.14232228  0.97166410     0.18000
F2664       F  0.80848644  0.11356102  0.96866930    -0.19800
C2665       C  0.85918583  0.23712094  0.22496697    -0.21200
C2666       C  0.79707927  0.23314933  0.23472013    -0.09300
C2667       C  0.75688376  0.24495888  0.24586292     0.29600
C2668       C  0.77840931  0.26032495  0.24699923    -0.21200
C2669       C  0.84041594  0.26430691  0.23714269    -0.09300
C2670       C  0.88067052  0.25249828  0.22605220     0.29600
F2671       F  0.94018665  0.25580163  0.21554773    -0.19800
H2672       H  0.89134784  0.22830465  0.21622649     0.18000
H2673       H  0.74621821  0.26914105  0.25571687     0.18000
F2674       F  0.69720056  0.24168732  0.25618806    -0.19800
C2675       C  0.88192155  0.36799496  0.23268262    -0.21200
C2676       C  0.93303231  0.35740923  0.23506856    -0.09300
C2677       C  0.66252773  0.36335430  0.23635171     0.29600
C2678       C  0.67302710  0.37938403  0.23698296    -0.21200
C2679       C  0.95493183  0.38985175  0.23653648    -0.09300
C2680       C  0.89254647  0.38402174  0.23334768     0.29600
F2681       F  0.84166875  0.39373182  0.23110151    -0.19800
H2682       H  0.83331088  0.36387770  0.23031165     0.18000
H2683       H  0.72183523  0.38350228  0.23802284     0.18000
F2684       F  0.71362752  0.35365827  0.23737120    -0.19800
C2685       C  0.88143326  0.31195519  0.35121184    -0.21200
C2686       C  0.93027119  0.31045706  0.32940337    -0.09300
C2687       C  0.66136753  0.30933375  0.33953893     0.29600
C2688       C  0.67565631  0.30970330  0.37074279    -0.21200
C2689       C  0.95950858  0.31110563  0.39267330    -0.09300
C2690       C  0.89560818  0.31219606  0.38247746     0.29600
F2691       F  0.84662080  0.31373644  0.40263437    -0.19800
H2692       H  0.83202978  0.31289940  0.34409788     0.18000
H2693       H  0.72513072  0.30889758  0.37782091     0.18000
F2694       F  0.71062084  0.30810902  0.31944968    -0.19800
C2695       C  0.67446327  0.43783668  0.35304487    -0.21200
C2696       C  0.95778252  0.43752961  0.33141356    -0.09300
C2697       C  0.89380098  0.43706948  0.34172354     0.29600
C2698       C  0.87984154  0.43735546  0.37298912    -0.21200
C2699       C  0.92899825  0.43821543  0.39469003    -0.09300
C2700       C  0.99301672  0.43865365  0.38435824     0.29600
F2701       F  0.71056645  0.43831074  0.40429137    -0.19800
H2702       H  0.72389909  0.43782097  0.34571733     0.18000
H2703       H  0.83036166  0.43694148  0.38019343     0.18000
F2704       F  0.84445222  0.43609916  0.32167784    -0.19800
C2705       C  0.99648476  0.38568557  0.48274032    -0.21200
C2706       C  0.93480021  0.39115593  0.48900542    -0.09300
C2707       C  0.88574832  0.38031678  0.49494545     0.29600
C2708       C  0.89819788  0.36437328  0.49401562    -0.21200
C2709       C  0.95967061  0.35885098  0.48721941    -0.09300
C2710       C  0.00894804  0.36973549  0.48168992     0.29600
F2711       F  0.73701794  0.36495737  0.47275894    -0.19800
H2712       H  0.70309510  0.39370576  0.47643318     0.18000
H2713       H  0.85955631  0.35634713  0.49870841     0.18000
F2714       F  0.82577100  0.38510067  0.50215562    -0.19800
C2715       C  0.75116454  0.50326775  0.48314425    -0.21200
C2716       C  0.79429595  0.51514804  0.49057868    -0.09300
C2717       C  0.85870974  0.51119091  0.49645562     0.29600
C2718       C  0.87890163  0.49572799  0.49492032    -0.21200
C2719       C  0.83573966  0.48384154  0.48753724    -0.09300
C2720       C  0.77136073  0.48781062  0.48156623     0.29600
F2721       F  0.72752807  0.47682332  0.47404354    -0.19800
H2722       H  0.70163312  0.50593678  0.47826448     0.18000
H2723       H  0.92846059  0.49306306  0.49975286     0.18000
F2724       F  0.90256939  0.52219868  0.50382337    -0.19800
C2725       C  0.73040396  0.63437797  0.48275570    -0.21200
C2726       C  0.00180791  0.64007886  0.48971379    -0.09300
C2727       C  0.95266789  0.62922435  0.49565190     0.29600
C2728       C  0.96520553  0.61327922  0.49484380    -0.21200
C2729       C  0.02682582  0.60781373  0.48841196    -0.09300
C2730       C  0.74293364  0.61845119  0.48211819     0.29600
F2731       F  0.80295236  0.61365909  0.47500436    -0.19800
H2732       H  0.76903803  0.64239375  0.47797683     0.18000
H2733       H  0.92693835  0.60521132  0.49996292     0.18000
F2734       F  0.89257937  0.63394206  0.50276978    -0.19800
C2735       C  0.73023569  0.68366325  0.59380550    -0.21200
C2736       C  0.00096458  0.68762255  0.58424533    -0.09300
C2737       C  0.95559347  0.69216115  0.60613093     0.29600
C2738       C  0.97177883  0.69244714  0.63716698    -0.21200
C2739       C  0.70059699  0.68810705  0.64691217    -0.09300
C2740       C  0.74634776  0.68384019  0.62486012     0.29600
F2741       F  0.80641577  0.67968400  0.63318829    -0.19800
H2742       H  0.76646260  0.68036274  0.57730931     0.18000
H2743       H  0.93571398  0.69610200  0.65344126     0.18000
F2744       F  0.89634929  0.69682467  0.59747429    -0.19800
C2745       C  0.73459179  0.56450752  0.63699922    -0.21200
C2746       C  0.00613563  0.56103254  0.64700503    -0.09300
C2747       C  0.95964849  0.55711868  0.62524059     0.29600
C2748       C  0.97505163  0.55695117  0.59413654    -0.21200
C2749       C  0.70360920  0.56048356  0.58393581    -0.09300
C2750       C  0.75007383  0.56445988  0.60583333     0.29600
F2751       F  0.81017167  0.56847028  0.59723805    -0.19800
H2752       H  0.77120699  0.56765309  0.65338382     0.18000
H2753       H  0.93799277  0.55381043  0.57799308     0.18000
F2754       F  0.89984893  0.55297013  0.63406860    -0.19800
C2755       C  0.95340265  0.61910374  0.73848846    -0.21200
C2756       C  0.00459634  0.60855991  0.74157830    -0.09300
C2757       C  0.73338922  0.61455949  0.74423288     0.29600
C2758       C  0.74393677  0.63056276  0.74444951    -0.21200
C2759       C  0.69291775  0.64113483  0.74149947    -0.09300
C2760       C  0.96388004  0.63516098  0.73870572     0.29600
F2761       F  0.91336231  0.64486430  0.73499165    -0.19800
H2762       H  0.90496083  0.61494079  0.73565201     0.18000
H2763       H  0.79256240  0.63466896  0.74692723     0.18000
F2764       F  0.78438148  0.60490989  0.74691771    -0.19800
C2765       C  0.88141550  0.99516463  0.99195572    -0.21200
C2766       C  0.83792081  0.98329101  0.98495669    -0.09300
C2767       C  0.77346988  0.98731350  0.97929295     0.29600
C2768       C  0.75362091  0.00282201  0.98063840    -0.21200
C2769       C  0.79719247  0.01470113  0.98754841    -0.09300
C2770       C  0.86160346  0.01066307  0.99327866     0.29600
F2771       F  0.90591134  0.02163158  0.00024449    -0.19800
H2772       H  0.93101414  0.99246548  0.99661572     0.18000
H2773       H  0.70402295  0.00552958  0.97598165     0.18000
F2774       F  0.72925319  0.97632736  0.97229860    -0.19800
C2775       C  0.88598482  0.87993580  0.98650525    -0.21200
C2776       C  0.93707540  0.89056679  0.98830994    -0.09300
C2777       C  0.99956415  0.88479378  0.99138746     0.29600
C2778       C  0.01036354  0.86876522  0.99203218    -0.21200
C2779       C  0.95925634  0.85816414  0.98987187    -0.09300
C2780       C  0.89672034  0.86394705  0.98736058     0.29600
F2781       F  0.84589081  0.85421446  0.98508216    -0.19800
H2782       H  0.83720432  0.88396640  0.98427020     0.18000
H2783       H  0.72275755  0.86440742  0.99601230     0.18000
F2784       F  0.71445486  0.89431097  0.99533384    -0.19800
C2785       C  0.88142182  0.75280386  0.73465962    -0.21200
C2786       C  0.83886607  0.76486667  0.74177831    -0.09300
C2787       C  0.77436077  0.76110518  0.74802750     0.29600
C2788       C  0.75338569  0.74568930  0.74687529    -0.21200
C2789       C  0.79586286  0.73363097  0.73962536    -0.09300
C2790       C  0.86047129  0.73738303  0.73355367     0.29600
F2791       F  0.90379529  0.72621518  0.72635100    -0.19800
H2792       H  0.93106999  0.75529899  0.72963910     0.18000
H2793       H  0.70372199  0.74319951  0.75187029     0.18000
F2794       F  0.73112385  0.77226765  0.75537798    -0.19800
C2795       C  0.99388982  0.80718070  0.84336541    -0.21200
C2796       C  0.93164557  0.81075659  0.83319824    -0.09300
C2797       C  0.88474150  0.81448845  0.85507396     0.29600
C2798       C  0.89976204  0.81436611  0.88625132    -0.21200
C2799       C  0.96196668  0.81081249  0.89628067    -0.09300
C2800       C  0.00901692  0.80725303  0.87450419     0.29600
F2801       F  0.73446891  0.80373162  0.88343295    -0.19800
H2802       H  0.03123700  0.80425575  0.82718459     0.18000
H2803       H  0.86269949  0.81725941  0.90261676     0.18000
F2804       F  0.82455807  0.81837484  0.84645241    -0.19800
C2805       C  0.90071951  0.93409461  0.83920044    -0.21200
C2806       C  0.96332457  0.93751136  0.82946685    -0.09300
C2807       C  0.00989154  0.94097819  0.85150773     0.29600
C2808       C  0.99389459  0.94107717  0.88258220    -0.21200
C2809       C  0.93126041  0.93761381  0.89243364    -0.09300
C2810       C  0.88482384  0.93400610  0.87029244     0.29600
F2811       F  0.82422888  0.93026693  0.87855949    -0.19800
H2812       H  0.86395192  0.93128234  0.82266099     0.18000
H2813       H  0.03091038  0.94390660  0.89896930     0.18000
F2814       F  0.73270682  0.94582788  0.84260306    -0.19800
C2815       C  0.01443603  0.87921043  0.73713941    -0.21200
C2816       C  0.96311650  0.88981403  0.73623732    -0.09300
C2817       C  0.90042200  0.88400097  0.73538468     0.29600
C2818       C  0.88961415  0.86801604  0.73584144    -0.21200
C2819       C  0.94078265  0.85739773  0.73704633    -0.09300
C2820       C  0.00356793  0.86317204  0.73745319     0.29600
F2821       F  0.05438234  0.85339592  0.73865784    -0.19800
H2822       H  0.06330028  0.88331608  0.73771574     0.18000
H2823       H  0.84065012  0.86396937  0.73530344     0.18000
F2824       F  0.84931842  0.89370218  0.73450228    -0.19800
C2825       C  0.98537747  0.68364731  0.34722440    -0.21200
C2826       C  0.92583870  0.68657411  0.33372112    -0.09300
C2827       C  0.87217912  0.68879200  0.35293786     0.29600
C2828       C  0.87866914  0.68833033  0.38475733    -0.21200
C2829       C  0.93849521  0.68576771  0.39816148    -0.09300
C2830       C  0.99185563  0.68327580  0.37902168     0.29600
F2831       F  0.05036537  0.68025973  0.39097964    -0.19800
H2832       H  0.02718356  0.68166245  0.33314768     0.18000
H2833       H  0.83705606  0.69034237  0.39895891     0.18000
F2834       F  0.81326540  0.69149798  0.34115874    -0.19800
C2835       C  0.71418862  0.55991140  0.34585300    -0.21200
C2836       C  0.77361010  0.56325592  0.33266835    -0.09300
C2837       C  0.82578193  0.56669833  0.35192326     0.29600
C2838       C  0.81871817  0.56635550  0.38370181    -0.21200
C2839       C  0.75972465  0.56255196  0.39700893    -0.09300
C2840       C  0.70711241  0.55948125  0.37762976     0.29600
F2841       F  0.64878089  0.55585658  0.38919066    -0.19800
H2842       H  0.67345580  0.55720773  0.33152619     0.18000
H2843       H  0.85966935  0.56902267  0.39789924     0.18000
F2844       F  0.88357415  0.57060132  0.34007699    -0.19800
C2845       C  0.79565267  0.50328201  0.24584366    -0.21200
C2846       C  0.75123434  0.51492084  0.23864165    -0.09300
C2847       C  0.68765682  0.51049415  0.23190586     0.29600
C2848       C  0.66946474  0.49486806  0.23253853    -0.21200
C2849       C  0.71383344  0.48322799  0.23973506    -0.09300
C2850       C  0.77743200  0.48763511  0.24644974     0.29600
F2851       F  0.82234349  0.47689089  0.25380366    -0.19800
H2852       H  0.84465348  0.50627872  0.25122134     0.18000
H2853       H  0.95387919  0.49169441  0.22791996     0.18000
F2854       F  0.64263488  0.52120146  0.22449111    -0.19800
C2855       C  0.89761183  0.61419926  0.25016255    -0.21200
C2856       C  0.83759634  0.60853292  0.24125352    -0.09300
C2857       C  0.78893144  0.61928795  0.23383441     0.29600
C2858       C  0.80074848  0.63526573  0.23500029    -0.21200
C2859       C  0.86118418  0.64086620  0.24323301    -0.09300
C2860       C  0.90941190  0.63016045  0.25121867     0.29600
F2861       F  0.96796111  0.63509617  0.26042604    -0.19800
H2862       H  0.93561394  0.60627167  0.25641387     0.18000
H2863       H  0.76302094  0.64325327  0.22864811     0.18000
F2864       F  0.73011281  0.61444960  0.22485249    -0.19800
C2865       C  0.82059909  0.68332980  0.84666640    -0.21200
C2866       C  0.76063215  0.68613840  0.83348727    -0.09300
C2867       C  0.70732641  0.68822769  0.85297524     0.29600
C2868       C  0.71457587  0.68781506  0.88473999    -0.21200
C2869       C  0.77483670  0.68543613  0.89783241    -0.09300
C2870       C  0.82783695  0.68300602  0.87843340     0.29600
F2871       F  0.88671969  0.68012277  0.89010428    -0.19800
H2872       H  0.86216309  0.68145409  0.83236686     0.18000
H2873       H  0.67315324  0.68972308  0.89913041     0.18000
F2874       F  0.64801041  0.69078356  0.84151845    -0.19800
C2875       C  0.68973568  0.73752881  0.99996732    -0.21200
C2876       C  0.75229620  0.73331109  0.99131468    -0.09300
C2877       C  0.79446440  0.74499996  0.98151138     0.29600
C2878       C  0.77432385  0.76048230  0.98053836    -0.21200
C2879       C  0.71171094  0.76469094  0.98913264    -0.09300
C2880       C  0.66956839  0.75300357  0.99894952     0.29600
F2881       F  0.94558246  0.75696314  0.01041866    -0.19800
H2882       H  0.65603474  0.72881758  0.00766236     0.18000
H2883       H  0.80800633  0.76919771  0.97284027     0.18000
F2884       F  0.85471691  0.74149996  0.97227124    -0.19800
C2885       C  0.90059249  0.68309735  0.09362643    -0.21200
C2886       C  0.83890876  0.68726881  0.08374094    -0.09300
C2887       C  0.79304904  0.69153688  0.10559650     0.29600
C2888       C  0.80876312  0.69164162  0.13665808    -0.21200
C2889       C  0.87041080  0.68740756  0.14672157    -0.09300
C2890       C  0.91619826  0.68302314  0.12476586     0.29600
F2891       F  0.97574203  0.67852083  0.13326035    -0.19800
H2892       H  0.93673842  0.67968690  0.07717541     0.18000
H2893       H  0.77228002  0.69511725  0.15286985     0.18000
F2894       F  0.73368263  0.69610160  0.09691784    -0.19800
C2895       C  0.87573782  0.55946131  0.87857098    -0.21200
C2896       C  0.92940734  0.56229790  0.89727018    -0.09300
C2897       C  0.98840159  0.56552950  0.88323799     0.29600
C2898       C  0.99347085  0.56559341  0.85137397    -0.21200
C2899       C  0.93997396  0.56261097  0.83276364    -0.09300
C2900       C  0.88075609  0.55966663  0.84668959     0.29600
F2901       F  0.82822391  0.55646088  0.82961484    -0.19800
H2902       H  0.82957810  0.55692825  0.88859891     0.18000
H2903       H  0.03959989  0.56803729  0.84120831     0.18000
F2904       F  0.04134830  0.56854865  0.90014110    -0.19800
C2905       C  0.80881602  0.55610338  0.09406054    -0.21200
C2906       C  0.87060111  0.56018376  0.08393831    -0.09300
C2907       C  0.91656462  0.56449484  0.10582556     0.29600
C2908       C  0.90096851  0.56455728  0.13696158    -0.21200
C2909       C  0.83908520  0.56060705  0.14691987    -0.09300
C2910       C  0.79310234  0.55635298  0.12514580     0.29600
F2911       F  0.73357340  0.55197180  0.13395736    -0.19800
H2912       H  0.77223506  0.55269064  0.07787954     0.18000
H2913       H  0.93724508  0.56793744  0.15333837     0.18000
F2914       F  0.97624400  0.56886053  0.09723633    -0.19800
C2915       C  0.78859210  0.62928455  0.99299729    -0.21200
C2916       C  0.83942527  0.63987362  0.98929496    -0.09300
C2917       C  0.90151975  0.63403622  0.98496338     0.29600
C2918       C  0.91235658  0.61804298  0.98506352    -0.21200
C2919       C  0.86174139  0.60746499  0.98916435    -0.09300
C2920       C  0.79942846  0.61325157  0.99281972     0.29600
F2921       F  0.74918886  0.60349697  0.99691724    -0.19800
H2922       H  0.74013302  0.63339289  0.99624202     0.18000
H2923       H  0.96082512  0.61394074  0.98180833     0.18000
F2924       F  0.95198207  0.64370563  0.98069265    -0.19800
C2925       C  0.87895785  0.18732401  0.84657274    -0.21200
C2926       C  0.93358543  0.18533821  0.82803792    -0.09300
C2927       C  0.99292842  0.18284744  0.84221198     0.29600
C2928       C  0.99739981  0.18276560  0.87408484    -0.21200
C2929       C  0.94297973  0.18502953  0.89254742    -0.09300
C2930       C  0.88339650  0.18710545  0.87845348     0.29600
F2931       F  0.82983497  0.18946928  0.89536108    -0.19800
H2932       H  0.83246394  0.18922601  0.83641141     0.18000
H2933       H  0.70947171  0.18023960  0.88417610     0.18000
F2934       F  0.71223824  0.17993845  0.82522216    -0.19800
C2935       C  0.82569289  0.05852450  0.87959955    -0.21200
C2936       C  0.76627874  0.06165419  0.89295631    -0.09300
C2937       C  0.71355534  0.06480318  0.87387078     0.29600
C2938       C  0.72051278  0.06473082  0.84205083    -0.21200
C2939       C  0.77985303  0.06139008  0.82858951    -0.09300
C2940       C  0.83259130  0.05827978  0.84783820     0.29600
F2941       F  0.89102492  0.05485594  0.83615501    -0.19800
H2942       H  0.86668136  0.05592056  0.89379950     0.18000
H2943       H  0.67938890  0.06732043  0.82794338     0.18000
F2944       F  0.65547334  0.06826034  0.88593334    -0.19800
C2945       C  0.69142224  0.01049859  0.72379122    -0.21200
C2946       C  0.75308591  0.01477638  0.73368756    -0.09300
C2947       C  0.79413305  0.00317426  0.74481497     0.29600
C2948       C  0.77387783  0.98772657  0.74593588    -0.21200
C2949       C  0.71227902  0.98342129  0.73608866    -0.09300
C2950       C  0.67117754  0.99500260  0.72484761     0.29600
F2951       F  0.94590923  0.99141777  0.71658497    -0.19800
H2952       H  0.65868522  0.01916585  0.71504577     0.18000
H2953       H  0.80672720  0.97910385  0.75475154     0.18000
F2954       F  0.85336079  0.00674152  0.75532765    -0.19800
C2955       C  0.79503752  0.11853796  0.74105942    -0.21200
C2956       C  0.84570626  0.10789477  0.73764045    -0.09300
C2957       C  0.90810726  0.11363248  0.73409365     0.29600
C2958       C  0.91905267  0.12963416  0.73338374    -0.21200
C2959       C  0.86830977  0.14031040  0.73638774    -0.09300
C2960       C  0.80603406  0.13455940  0.74057362     0.29600
F2961       F  0.75565449  0.14433661  0.74407750    -0.19800
H2962       H  0.74650393  0.11446288  0.74413057     0.18000
H2963       H  0.96766585  0.13364255  0.73026214     0.18000
F2964       F  0.95845045  0.10384499  0.73051578    -0.19800
C2965       C  0.99607132  0.06491301  0.37965845    -0.21200
C2966       C  0.93595488  0.06245686  0.39302847    -0.09300
C2967       C  0.88241320  0.06044522  0.37370674     0.29600
C2968       C  0.88951012  0.06056112  0.34194887    -0.21200
C2969       C  0.94981870  0.06258913  0.32865161    -0.09300
C2970       C  0.00313239  0.06497212  0.34785109     0.29600
F2971       F  0.06209782  0.06756740  0.33595340    -0.19800
H2972       H  0.03784731  0.06671321  0.39382772     0.18000
H2973       H  0.84780521  0.05873501  0.32773161     0.18000
F2974       F  0.82292109  0.05826858  0.38531621    -0.19800
C2975       C  0.81186738  0.05729060  0.58931619    -0.21200
C2976       C  0.87413484  0.06114911  0.57948330    -0.09300
C2977       C  0.91991755  0.06525888  0.60158482     0.29600
C2978       C  0.90384854  0.06521473  0.63265373    -0.21200
C2979       C  0.84167745  0.06135133  0.64235150    -0.09300
C2980       C  0.79570131  0.05742255  0.62035808     0.29600
F2981       F  0.73587502  0.05315218  0.62891258    -0.19800
H2982       H  0.77535057  0.05406599  0.57295375     0.18000
H2983       H  0.94011452  0.06836738  0.64921171     0.18000
F2984       F  0.97998012  0.06945406  0.59328676    -0.19800
C2985       C  0.71570480  0.18717976  0.34667879    -0.21200
C2986       C  0.76971988  0.18534457  0.32770167    -0.09300
C2987       C  0.82971817  0.18311256  0.34143534     0.29600
C2988       C  0.83539404  0.18319935  0.37329816    -0.21200
C2989       C  0.78153402  0.18534275  0.39218709    -0.09300
C2990       C  0.72131699  0.18709501  0.37851834     0.29600
F2991       F  0.66814103  0.18924574  0.39580208    -0.19800
H2992       H  0.66874042  0.18886544  0.33689374     0.18000
H2993       H  0.88229385  0.18158905  0.38322890     0.18000
F2994       F  0.88304134  0.18103732  0.32422663    -0.19800
C2995       C  0.77996859  0.26123795  0.47496678    -0.21200
C2996       C  0.71765693  0.26535932  0.48426601    -0.09300
C2997       C  0.67602095  0.25355588  0.49402894     0.29600
C2998       C  0.69638615  0.23807863  0.49441229    -0.21200
C2999       C  0.75873390  0.23395748  0.48521734    -0.09300
C3000       C  0.80034928  0.24575219  0.47534752     0.29600
F3001       F  0.86034096  0.24236089  0.46557241    -0.19800
H3002       H  0.81326862  0.27003057  0.46723053     0.18000
H3003       H  0.66306738  0.22929393  0.50216119     0.18000
F3004       F  0.61603166  0.25693739  0.50379275    -0.19800
C3005       C  0.79824503  0.18917947  0.59968398    -0.21200
C3006       C  0.84766221  0.18843742  0.57806708    -0.09300
C3007       C  0.91144262  0.18759679  0.58852292     0.29600
C3008       C  0.92490668  0.18739316  0.61987112    -0.21200
C3009       C  0.87544070  0.18819195  0.64150433    -0.09300
C3010       C  0.81169183  0.18915362  0.63098543     0.29600
F3011       F  0.76187012  0.18990172  0.65084243    -0.19800
H3012       H  0.74889095  0.18987929  0.59237092     0.18000
H3013       H  0.97423525  0.18664269  0.62719141     0.18000
F3014       F  0.96099984  0.18668175  0.56854355    -0.19800
C3015       C  0.92137244  0.11870429  0.48358359    -0.21200
C3016       C  0.87002539  0.10812268  0.48450229    -0.09300
C3017       C  0.80733379  0.11395036  0.48506794     0.29600
C3018       C  0.79667285  0.12998419  0.48511161    -0.21200
C3019       C  0.84808246  0.14056242  0.48445823    -0.09300
C3020       C  0.91073623  0.13471678  0.48349608     0.29600
F3021       F  0.96188063  0.14440836  0.48286885    -0.19800
H3022       H  0.97025819  0.11460418  0.48298911     0.18000
H3023       H  0.74782160  0.13410439  0.48572851     0.18000
F3024       F  0.75633222  0.10422464  0.48608607    -0.19800
C3025       C  0.91285826  0.30879275  0.09172757    -0.21200
C3026       C  0.85358880  0.31236026  0.07868023    -0.09300
C3027       C  0.80147175  0.31572812  0.09806582     0.29600
C3028       C  0.80870366  0.31533997  0.12984643    -0.21200
C3029       C  0.86776450  0.31150493  0.14299986    -0.09300
C3030       C  0.92003406  0.30824893  0.12347076     0.29600
F3031       F  0.97817604  0.30434260  0.13485078    -0.19800
H3032       H  0.95343218  0.30603207  0.07730644     0.18000
H3033       H  0.76795315  0.31806398  0.14416396     0.18000
F3034       F  0.74364681  0.31965120  0.08634244    -0.19800
C3035       C  0.93725475  0.26037406  0.97383528    -0.21200
C3036       C  0.87595612  0.26460029  0.98435568    -0.09300
C3037       C  0.83511236  0.25289381  0.99531377     0.29600
C3038       C  0.85559263  0.23741185  0.99589632    -0.21200
C3039       C  0.91715049  0.23321484  0.98563569    -0.09300
C3040       C  0.95765250  0.24490156  0.97433706     0.29600
F3041       F  0.68495911  0.24137538  0.96418863    -0.19800
H3042       H  0.96975370  0.26908403  0.96503202     0.18000
H3043       H  0.82310161  0.22868960  0.00465907     0.18000
F3044       F  0.77598455  0.25638469  0.00611760    -0.19800
C3045       C  0.64082853  0.43373049  0.09404256    -0.21200
C3046       C  0.70122567  0.43588425  0.08081075    -0.09300
C3047       C  0.75481378  0.43746306  0.10024870     0.29600
C3048       C  0.74752601  0.43716889  0.13200635    -0.21200
C3049       C  0.68696262  0.43542258  0.14518031    -0.09300
C3050       C  0.63353996  0.43355143  0.12583062     0.29600
F3051       F  0.90981453  0.42996114  0.13787978    -0.19800
H3052       H  0.93454715  0.43112777  0.08008489     0.18000
H3053       H  0.78924670  0.43866436  0.14634084     0.18000
F3054       F  0.81450561  0.43939269  0.08873997    -0.19800
C3055       C  0.92019924  0.50304886  0.98244276    -0.21200
C3056       C  0.96290409  0.51490171  0.99060277    -0.09300
C3057       C  0.02695487  0.51090691  0.99725522     0.29600
C3058       C  0.71298115  0.49543802  0.99555751    -0.21200
C3059       C  0.67042596  0.48361634  0.98700729    -0.09300
C3060       C  0.94047530  0.48759383  0.98087189     0.29600
F3061       F  0.89708222  0.47664549  0.97257994    -0.19800
H3062       H  0.87092522  0.50573288  0.97700768     0.18000
H3063       H  0.76200540  0.49270842  0.00139991     0.18000
F3064       F  0.07030235  0.52187798  0.00548117    -0.19800
C3065       C  0.84134379  0.36881755  0.98751730    -0.21200
C3066       C  0.78991185  0.35823974  0.98701662    -0.09300
C3067       C  0.72726118  0.36410258  0.98704593     0.29600
C3068       C  0.71663843  0.38011208  0.98746546    -0.21200
C3069       C  0.76796588  0.39070712  0.98790924    -0.09300
C3070       C  0.83067563  0.38486840  0.98802009     0.29600
F3071       F  0.88168884  0.39460339  0.98822419    -0.19800
H3072       H  0.89017151  0.36467981  0.98754230     0.18000
H3073       H  0.66773139  0.38419529  0.98737047     0.18000
F3074       F  0.67608816  0.35442529  0.98622627    -0.19800
C3075       C  0.64980442  0.31667856  0.62916558    -0.21200
C3076       C  0.70822948  0.31245318  0.64250031    -0.09300
C3077       C  0.76073071  0.30915453  0.62314121     0.29600
C3078       C  0.75406424  0.30978513  0.59134479    -0.21200
C3079       C  0.69513356  0.31355089  0.57814361    -0.09300
C3080       C  0.64313383  0.31721454  0.59739114     0.29600
F3081       F  0.91549728  0.32023175  0.58595351    -0.19800
H3082       H  0.60898148  0.31953605  0.64334010     0.18000
H3083       H  0.79461266  0.30687605  0.57701580     0.18000
F3084       F  0.81847099  0.30507280  0.63474156    -0.19800
C3085       C  0.71682088  0.25266705  0.72929375    -0.21200
C3086       C  0.67353137  0.26454806  0.73662445    -0.09300
C3087       C  0.94220854  0.26053776  0.74367110     0.29600
C3088       C  0.92271245  0.24500759  0.74246719    -0.21200
C3089       C  0.96617589  0.23320738  0.73485866    -0.09300
C3090       C  0.69699468  0.23715431  0.72828606     0.29600
F3091       F  0.74096057  0.22617198  0.72085962    -0.19800
H3092       H  0.76619447  0.25537330  0.72407794     0.18000
H3093       H  0.87342349  0.24222611  0.74771108     0.18000
F3094       F  0.89816104  0.27143318  0.75146619    -0.19800
C3095       C  0.72910086  0.31389142  0.88245133    -0.21200
C3096       C  0.79123023  0.31041766  0.89269589    -0.09300
C3097       C  0.83833814  0.30660684  0.87111714     0.29600
C3098       C  0.82353877  0.30636177  0.83994854    -0.21200
C3099       C  0.76152791  0.30999042  0.82953974    -0.09300
C3100       C  0.71437444  0.31381352  0.85122943     0.29600
F3101       F  0.65431149  0.31766057  0.84236358    -0.19800
H3102       H  0.69191910  0.31690541  0.89866879     0.18000
H3103       H  0.86101966  0.30331295  0.82392827     0.18000
F3104       F  0.89816351  0.30265562  0.88019366    -0.19800
C3105       C  0.80379857  0.43340678  0.62689938    -0.21200
C3106       C  0.85795419  0.43572484  0.64546442    -0.09300
C3107       C  0.91745982  0.43812755  0.63146213     0.29600
C3108       C  0.92217758  0.43847879  0.59959301    -0.21200
C3109       C  0.86790347  0.43631705  0.58095641    -0.09300
C3110       C  0.80854744  0.43363812  0.59502606     0.29600
F3111       F  0.75498527  0.43136696  0.57813391    -0.19800
H3112       H  0.75741395  0.43136938  0.63709697     0.18000
H3113       H  0.96860868  0.44059326  0.58952423     0.18000
F3114       F  0.97067855  0.44064667  0.64847237    -0.19800
C3115       C  0.94218067  0.48772479  0.74824077    -0.21200
C3116       C  0.87984519  0.48342656  0.73939443    -0.09300
C3117       C  0.83737775  0.49510271  0.72985697     0.29600
C3118       C  0.85692020  0.51064723  0.72941934    -0.21200
C3119       C  0.91921851  0.51494324  0.73833747    -0.09300
C3120       C  0.96170315  0.50326367  0.74781467     0.29600
F3121       F  0.02170060  0.50682773  0.75727053    -0.19800
H3122       H  0.97614698  0.47903265  0.75572621     0.18000
H3123       H  0.82298153  0.51934739  0.72194045     0.18000
F3124       F  0.77734977  0.49153640  0.72044109    -0.19800
C3125       C  0.84211929  0.43874276  0.85313632    -0.21200
C3126       C  0.79347666  0.43718569  0.83135166    -0.09300
C3127       C  0.72961494  0.43577579  0.84149990     0.29600
C3128       C  0.71516175  0.43607122  0.87272346    -0.21200
C3129       C  0.76371326  0.43785303  0.89453735    -0.09300
C3130       C  0.82767354  0.43914894  0.88434187     0.29600
F3131       F  0.87671980  0.44070995  0.90441950    -0.19800
H3132       H  0.89149949  0.43984919  0.84601493     0.18000
H3133       H  0.66577830  0.43492280  0.87979794     0.18000
F3134       F  0.68093888  0.43385986  0.82133217    -0.19800
C3135       C  0.83309719  0.36293752  0.74196869    -0.21200
C3136       C  0.77178769  0.35738043  0.73514622    -0.09300
C3137       C  0.72278867  0.36815644  0.72873983     0.29600
C3138       C  0.73488337  0.38410229  0.72965392    -0.21200
C3139       C  0.79592054  0.38971594  0.73692821    -0.09300
C3140       C  0.84518001  0.37891647  0.74303766     0.29600
F3141       F  0.90492410  0.38372070  0.75054032    -0.19800
H3142       H  0.87146809  0.35491184  0.74713810     0.18000
H3143       H  0.69626339  0.39206464  0.72454773     0.18000
F3144       F  0.66315879  0.36331408  0.72110043    -0.19800
C3145       C  0.96977849  0.81492321  0.10096778    -0.21200
C3146       C  0.68655024  0.81208001  0.08239686    -0.09300
C3147       C  0.74666018  0.81030813  0.09619053     0.29600
C3148       C  0.75196648  0.81013052  0.12802130    -0.21200
C3149       C  0.69766646  0.81176989  0.14685402    -0.09300
C3150       C  0.63753906  0.81363577  0.13302196     0.29600
F3151       F  0.92194442  0.81727071  0.14992360    -0.19800
H3152       H  0.92337354  0.81713677  0.09094135     0.18000
H3153       H  0.79896195  0.80862316  0.13790823     0.18000
F3154       F  0.80012180  0.80830120  0.07903035    -0.19800
C3155       C  0.91766071  0.74548361  0.24367015    -0.21200
C3156       C  0.96134680  0.73347343  0.23790224    -0.09300
C3157       C  0.02613112  0.73736316  0.23272059     0.29600
C3158       C  0.04627472  0.75284853  0.23377469    -0.21200
C3159       C  0.66666981  0.76492227  0.24055198    -0.09300
C3160       C  0.93777586  0.76096892  0.24464426     0.29600
F3161       F  0.89325418  0.77208436  0.25030253    -0.19800
H3162       H  0.86771330  0.74289975  0.24770194     0.18000
H3163       H  0.76065946  0.75556450  0.23126234     0.18000
F3164       F  0.07047262  0.72626237  0.22663195    -0.19800
C3165       C  0.80386507  0.93303408  0.12455191    -0.21200
C3166       C  0.85736927  0.93563940  0.14337003    -0.09300
C3167       C  0.91707049  0.93826818  0.12967291     0.29600
C3168       C  0.92258700  0.93853482  0.09781734    -0.21200
C3169       C  0.86893585  0.93606636  0.07891386    -0.09300
C3170       C  0.80942259  0.93316385  0.09270878     0.29600
F3171       F  0.75643176  0.93055406  0.07558348    -0.19800
H3172       H  0.75735371  0.93084244  0.13453091     0.18000
H3173       H  0.96913430  0.94080837  0.08797069     0.18000
F3174       F  0.96966840  0.94109278  0.14695723    -0.19800
C3175       C  0.86043076  0.01033607  0.22626703    -0.21200
C3176       C  0.92264125  0.01439614  0.23570399    -0.09300
C3177       C  0.96349311  0.00262562  0.24632333     0.29600
C3178       C  0.94262450  0.98719609  0.24706456    -0.21200
C3179       C  0.88051984  0.98312762  0.23747205    -0.09300
C3180       C  0.83949479  0.99491692  0.22709045     0.29600
F3181       F  0.77961090  0.99157702  0.21714856    -0.19800
H3182       H  0.82768153  0.01912352  0.21801319     0.18000
H3183       H  0.97535864  0.97840691  0.25532783     0.18000
F3184       F  0.02310261  0.00600050  0.25658460    -0.19800
C3185       C  0.84090828  0.87929724  0.23831602    -0.21200
C3186       C  0.78997476  0.88988876  0.23499502    -0.09300
C3187       C  0.72759638  0.88405770  0.23182860     0.29600
C3188       C  0.71665505  0.86806443  0.23267872    -0.21200
C3189       C  0.76742135  0.85749580  0.23651045    -0.09300
C3190       C  0.82995421  0.86328251  0.23899479     0.29600
F3191       F  0.88035659  0.85355562  0.24285584    -0.19800
H3192       H  0.88957342  0.88339243  0.24071759     0.18000
H3193       H  0.66799303  0.86395734  0.23032611     0.18000
F3194       F  0.67696589  0.89373709  0.22818183    -0.19800
C3195       C  0.91820165  0.80960145  0.59506766    -0.21200
C3196       C  0.85865061  0.81306889  0.58214078    -0.09300
C3197       C  0.80644617  0.81611569  0.60167710     0.29600
C3198       C  0.81382633  0.81552439  0.63341612    -0.21200
C3199       C  0.87310887  0.81178794  0.64645221    -0.09300
C3200       C  0.92551765  0.80885057  0.62682349     0.29600
F3201       F  0.98391002  0.80510192  0.63811968    -0.19800
H3202       H  0.95887497  0.80707754  0.58054350     0.18000
H3203       H  0.77289271  0.81798732  0.64780120     0.18000
F3204       F  0.74825340  0.81987730  0.59016035    -0.19800
C3205       C  0.83213926  0.75365292  0.49168760    -0.21200
C3206       C  0.87906743  0.76524871  0.49014017    -0.09300
C3207       C  0.94407421  0.76076755  0.48977514     0.29600
C3208       C  0.96111529  0.74507805  0.49052776    -0.21200
C3209       C  0.91420861  0.73347486  0.49186917    -0.09300
C3210       C  0.84920002  0.73795431  0.49254224     0.29600
F3211       F  0.80171140  0.72722437  0.49370812    -0.19800
H3212       H  0.78196364  0.75672447  0.49207485     0.18000
H3213       H  0.01130608  0.74201935  0.49013846     0.18000
F3214       F  0.99162158  0.77149155  0.48897624    -0.19800
C3215       C  0.82330024  0.80695932  0.34313168    -0.21200
C3216       C  0.76090840  0.81058535  0.33322432    -0.09300
C3217       C  0.71451988  0.81434491  0.35533699     0.29600
C3218       C  0.73027566  0.81432182  0.38645001    -0.21200
C3219       C  0.79271356  0.81080096  0.39622868    -0.09300
C3220       C  0.83912593  0.80708999  0.37422135     0.29600
F3221       F  0.89924900  0.80311671  0.38279318    -0.19800
H3222       H  0.86023367  0.80396912  0.32678069     0.18000
H3223       H  0.69357987  0.81728021  0.40295769     0.18000
F3224       F  0.65411689  0.81818806  0.34699861    -0.19800
C3225       C  0.64579792  0.93330748  0.59239298    -0.21200
C3226       C  0.70553816  0.93635796  0.57916092    -0.09300
C3227       C  0.75878638  0.93863062  0.59854930     0.29600
C3228       C  0.75166610  0.93812232  0.63031461    -0.21200
C3229       C  0.69159672  0.93546590  0.64345728    -0.09300
C3230       C  0.97277928  0.93256053  0.62428352     0.29600
F3231       F  0.91439627  0.92924571  0.63614406    -0.19800
H3232       H  0.93811574  0.93083994  0.57835337     0.18000
H3233       H  0.79297912  0.94017414  0.64466332     0.18000
F3234       F  0.81786260  0.94146098  0.58700042    -0.19800
C3235       C  0.71660421  0.99568810  0.48965477    -0.21200
C3236       C  0.67197011  0.98374476  0.48527693    -0.09300
C3237       C  0.94074374  0.98773570  0.48086946     0.29600
C3238       C  0.92143229  0.00328476  0.48191523    -0.21200
C3239       C  0.96587139  0.01516974  0.48734443    -0.09300
C3240       C  0.03066943  0.01110464  0.49181905     0.29600
F3241       F  0.07583376  0.02208288  0.49729570    -0.19800
H3242       H  0.76682765  0.99301537  0.49248074     0.18000
H3243       H  0.87148624  0.00601800  0.47830581     0.18000
F3244       F  0.89555386  0.97673511  0.47561166    -0.19800
C3245       C  0.84020416  0.93672549  0.35082467    -0.21200
C3246       C  0.79078806  0.93728829  0.32922051    -0.09300
C3247       C  0.72690462  0.93781532  0.33971129     0.29600
C3248       C  0.71336391  0.93787866  0.37105297    -0.21200
C3249       C  0.76288497  0.93754783  0.39262318    -0.09300
C3250       C  0.82669411  0.93689533  0.38212022     0.29600
F3251       F  0.87636188  0.93618582  0.40202351    -0.19800
H3252       H  0.88962339  0.93623376  0.34352409     0.18000
H3253       H  0.66398975  0.93834068  0.37843059     0.18000
F3254       F  0.67720972  0.93813067  0.31978791    -0.19800
C3255       C  0.83187908  0.88546218  0.48184894    -0.21200
C3256       C  0.77087817  0.89112174  0.48894639    -0.09300
C3257       C  0.72218228  0.88050034  0.49672065     0.29600
C3258       C  0.73422608  0.86455233  0.49672941    -0.21200
C3259       C  0.79490155  0.85881890  0.48905510    -0.09300
C3260       C  0.84391212  0.86948958  0.48169412     0.29600
F3261       F  0.90331412  0.86456674  0.47378563    -0.19800
H3262       H  0.86998363  0.89339091  0.47570340     0.18000
H3263       H  0.69585924  0.85668861  0.50280741     0.18000
F3264       F  0.66296576  0.88550770  0.50477929    -0.19800
loop_ 
_geom_bond_atom_site_label_1 
_geom_bond_atom_site_label_2 
_geom_bond_distance 
_geom_bond_site_symmetry_2 
_ccdc_geom_bond_type 
O1           Cu9   1.983   1_655  S
O1           C11   1.273   1_655  A
O2           Cu9   1.977       .  S
O2           C12   1.273       .  A
O3           Cu9   2.031   1_655  S
O3           C13   1.283   1_655  A
O4           Cu9   2.036       .  S
O4           C14   1.283       .  A
O5          Cu10   1.979       .  S
O5           C14   1.273       .  A
O6          Cu10   1.978       .  S
O6           C13   1.273       .  A
O7          Cu10   2.031       .  S
O7           C12   1.282       .  A
O8          Cu10   2.035       .  S
O8           C11   1.283       .  A
Cu9         Cu10   2.369       .  S
C11        C1060   1.486       .  S
C12        C1080   1.477       .  S
C13        C1050   1.483       .  S
C14        C1073   1.483       .  S
O15         Cu23   1.984       .  S
O15          C25   1.274       .  A
O16         Cu23   1.981       .  S
O16          C26   1.273       .  A
O17         Cu23   2.035       .  S
O17          C27   1.283       .  A
O18         Cu23   2.034       .  S
O18          C28   1.282       .  A
O19         Cu24   1.984       .  S
O19          C28   1.274       .  A
O20         Cu24   1.989       .  S
O20          C27   1.274       .  A
O21         Cu24   2.035       .  S
O21          C26   1.283       .  A
O22         Cu24   2.025       .  S
O22          C25   1.282       .  A
Cu23        Cu24   2.369       .  S
C25        C1083   1.482       .  S
C26        C1030   1.486       .  S
C27        C1043   1.482       .  S
C28        C1020   1.481       .  S
O29         Cu37   1.984       .  S
O29          C39   1.273       .  A
O30         Cu37   1.980       .  S
O30          C40   1.273       .  A
O31         Cu37   2.028       .  S
O31          C41   1.282       .  A
O32         Cu37   2.035       .  S
O32          C42   1.283       .  A
O33         Cu38   1.984       .  S
O33          C42   1.274       .  A
O34         Cu38   1.984       .  S
O34          C41   1.274       .  A
O35         Cu38   2.031       .  S
O35          C40   1.282       .  A
O36         Cu38   2.032       .  S
O36          C39   1.283       .  A
Cu37        Cu38   2.369       .  S
C39        C1070   1.484       .  S
C40         C990   1.479       .  S
C41        C1010   1.484       .  S
C42        C1003   1.485       .  S
O43         Cu51   1.989       .  S
O43          C53   1.275       .  A
O44         Cu51   1.982       .  S
O44          C54   1.274       .  A
O45         Cu51   2.035       .  S
O45          C55   1.282       .  A
O46         Cu51   2.037       .  S
O46          C56   1.283       .  A
O47         Cu52   1.982   1_655  S
O47          C56   1.273   1_655  A
O48         Cu52   1.978       .  S
O48          C55   1.273       .  A
O49         Cu52   2.028   1_655  S
O49          C54   1.282   1_655  A
O50         Cu52   2.034       .  S
O50          C53   1.283       .  A
Cu51        Cu52   2.368       .  S
C53        C1040   1.488       .  S
C54         C973   1.483       .  S
C55        C1013   1.482       .  S
C56         C983   1.487       .  S
O57         Cu65   1.984       .  S
O57          C67   1.273       .  A
O58         Cu65   1.980       .  S
O58          C68   1.273       .  A
O59         Cu65   2.028       .  S
O59          C69   1.282       .  A
O60         Cu65   2.036       .  S
O60          C70   1.283       .  A
O61         Cu66   1.985       .  S
O61          C70   1.274       .  A
O62         Cu66   1.985       .  S
O62          C69   1.274       .  A
O63         Cu66   2.034       .  S
O63          C68   1.283       .  A
O64         Cu66   2.034       .  S
O64          C67   1.283       .  A
Cu65        Cu66   2.369       .  S
C67         C950   1.482       .  S
C68         C930   1.481       .  S
C69         C963   1.484       .  S
C70         C940   1.486       .  S
O71         Cu79   1.985       .  S
O71          C81   1.274       .  A
O72         Cu79   1.985       .  S
O72          C82   1.274       .  A
O73         Cu79   2.036       .  S
O73          C83   1.283       .  A
O74         Cu79   2.034       .  S
O74          C84   1.282       .  A
O75         Cu80   1.979       .  S
O75          C84   1.273       .  A
O76         Cu80   1.984   1_655  S
O76          C83   1.273   1_655  A
O77         Cu80   2.034       .  S
O77          C82   1.283       .  A
O78         Cu80   2.033   1_655  S
O78          C81   1.283   1_655  A
Cu79        Cu80   2.367       .  S
C81         C900   1.486       .  S
C82         C923   1.486       .  S
C83         C910   1.486       .  S
C84         C960   1.481       .  S
O85         Cu93   1.980   1_655  S
O85          C95   1.273   1_655  A
O86         Cu93   1.976       .  S
O86          C96   1.273       .  A
O87         Cu93   2.036   1_654  S
O87          C97   1.283   1_655  A
O88         Cu93   2.038       .  S
O88          C98   1.283       .  A
O89         Cu94   1.979       .  S
O89          C98   1.273       .  A
O90         Cu94   1.977   1_554  S
O90          C97   1.272       .  A
O91         Cu94   2.036       .  S
O91          C96   1.283       .  A
O92         Cu94   2.039       .  S
O92          C95   1.284       .  A
Cu93        Cu94   2.367       .  S
C95         C883   1.486       .  S
C96         C893   1.484       .  S
C97         C870   1.484       .  S
C98         C953   1.486       .  S
O99        Cu107   1.983   1_554  S
O99         C109   1.273       .  A
O100       Cu107   1.987       .  S
O100        C110   1.274       .  A
O101       Cu107   2.039       .  S
O101        C111   1.283       .  A
O102       Cu107   2.027       .  S
O102        C112   1.282       .  A
O103       Cu108   1.989       .  S
O103        C112   1.274       .  A
O104       Cu108   1.986       .  S
O104        C111   1.274       .  A
O105       Cu108   2.031       .  S
O105        C110   1.282       .  A
O106       Cu108   2.031   1_554  S
O106        C109   1.282       .  A
Cu107      Cu108   2.370       .  S
C109        C850   1.480       .  S
C110        C920   1.480       .  S
C111        C860   1.487       .  S
C112        C890   1.484       .  S
O113       Cu121   2.033       .  S
O113        C123   1.283       .  A
O114       Cu121   2.031       .  S
O114        C124   1.282       .  A
O115       Cu121   1.987       .  S
O115        C125   1.274       .  A
O116       Cu121   1.987       .  S
O116        C126   1.275       .  A
O117       Cu122   2.036       .  S
O117        C126   1.283       .  A
O118       Cu122   2.024       .  S
O118        C125   1.281       .  A
O119       Cu122   1.986       .  S
O119        C124   1.274       .  A
O120       Cu122   1.990       .  S
O120        C123   1.274       .  A
Cu121      Cu122   2.369       .  S
C123        C830   1.484       .  S
C124        C813   1.481       .  S
C125        C843   1.482       .  S
C126        C823   1.487       .  S
O127       Cu135   2.034       .  S
O127        C137   1.283       .  A
O128       Cu135   2.031       .  S
O128        C138   1.282       .  A
O129       Cu135   1.976       .  S
O129        C139   1.272       .  A
O130       Cu135   1.979       .  S
O130        C140   1.273       .  A
O131       Cu136   2.038       .  S
O131        C140   1.283       .  A
O132       Cu136   2.037       .  S
O132        C139   1.283       .  A
O133       Cu136   1.979       .  S
O133        C138   1.274       .  A
O134       Cu136   1.985       .  S
O134        C137   1.274       .  A
Cu135      Cu136   2.367       .  S
C137       C1063   1.487       .  S
C138        C840   1.483       .  S
C139        C790   1.485       .  S
C140        C800   1.486       .  S
O141       Cu149   2.037       .  S
O141        C151   1.283       .  A
O142       Cu149   2.036       .  S
O142        C152   1.283       .  A
O143       Cu149   1.988       .  S
O143        C153   1.274       .  A
O144       Cu149   1.988       .  S
O144        C154   1.274       .  A
O145       Cu150   2.029       .  S
O145        C154   1.282       .  A
O146       Cu150   2.023       .  S
O146        C153   1.281       .  A
O147       Cu150   1.978       .  S
O147        C152   1.273       .  A
O148       Cu150   1.981       .  S
O148        C151   1.273       .  A
Cu149      Cu150   2.369       .  S
C151        C803   1.479       .  S
C152        C763   1.485       .  S
C153        C780   1.481       .  S
C154        C770   1.485       .  S
O155       Cu163   2.036       .  S
O155        C165   1.283       .  A
O156       Cu163   2.039       .  S
O156        C166   1.283       .  A
O157       Cu163   1.983       .  S
O157        C167   1.273       .  A
O158       Cu163   1.978       .  S
O158        C168   1.274       .  A
O159       Cu164   2.034       .  S
O159        C168   1.282       .  A
O160       Cu164   2.037       .  S
O160        C167   1.283       .  A
O161       Cu164   1.983       .  S
O161        C166   1.273       .  A
O162       Cu164   1.977       .  S
O162        C165   1.273       .  A
Cu163      Cu164   2.367       .  S
C165        C750   1.484       .  S
C166        C833   1.487       .  S
C167        C913   1.486       .  S
C168        C783   1.484       .  S
O169       Cu177   2.029       .  S
O169        C179   1.282       .  A
O170       Cu177   2.033   1_554  S
O170        C180   1.282       .  A
O171       Cu177   1.982       .  S
O171        C181   1.273       .  A
O172       Cu177   1.976       .  S
O172        C182   1.273       .  A
O173       Cu178   2.032       .  S
O173        C182   1.282       .  A
O174       Cu178   2.035       .  S
O174        C181   1.283       .  A
O175       Cu178   1.986   1_554  S
O175        C180   1.274       .  A
O176       Cu178   1.984       .  S
O176        C179   1.274       .  A
Cu177      Cu178   2.368       .  S
C179        C720   1.484       .  S
C180        C730   1.487       .  S
C181        C880   1.485       .  S
C182        C743   1.480       .  S
O183       Cu191   2.032       .  S
O183        C193   1.282       .  A
O184       Cu191   2.033   1_554  S
O184        C194   1.282       .  A
O185       Cu191   1.986       .  S
O185        C195   1.274       .  A
O186       Cu191   1.989       .  S
O186        C196   1.275       .  A
O187       Cu192   2.019       .  S
O187        C196   1.281       .  A
O188       Cu192   2.031       .  S
O188        C195   1.282       .  A
O189       Cu192   1.990   1_554  S
O189        C194   1.274       .  A
O190       Cu192   1.984       .  S
O190        C193   1.274       .  A
Cu191      Cu192   2.370       .  S
C193        C693   1.480       .  S
C194        C710   1.480       .  S
C195        C700   1.484       .  S
C196        C740   1.482       .  S
O197       Cu205   2.033       .  S
O197        C207   1.282       .  A
O198       Cu205   2.033       .  S
O198        C208   1.282       .  A
O199       Cu205   1.981       .  S
O199        C209   1.273       .  A
O200       Cu205   1.979       .  S
O200        C210   1.273       .  A
O201       Cu206   2.042       .  S
O201        C210   1.284       .  A
O202       Cu206   2.030       .  S
O202        C209   1.283       .  A
O203       Cu206   1.984       .  S
O203        C208   1.274       .  A
O204       Cu206   1.989       .  S
O204        C207   1.274       .  A
Cu205      Cu206   2.369       .  S
C207        C733   1.481       .  S
C208        C660   1.480       .  S
C209        C680   1.484       .  S
C210        C670   1.488       .  S
O211       Cu219   2.036       .  S
O211        C221   1.283       .  A
O212       Cu219   2.039       .  S
O212        C222   1.284       .  A
O213       Cu219   1.984       .  S
O213        C223   1.274       .  A
O214       Cu219   1.983       .  S
O214        C224   1.273       .  A
O215       Cu220   2.035       .  S
O215        C224   1.283       .  A
O216       Cu220   2.039       .  S
O216        C223   1.283       .  A
O217       Cu220   1.982       .  S
O217        C222   1.273       .  A
O218       Cu220   1.974       .  S
O218        C221   1.272       .  A
Cu219      Cu220   2.367       .  S
C221        C683   1.479       .  S
C222        C980   1.487       .  S
C223        C713   1.488       .  S
C224        C650   1.486       .  S
O225       Cu233   1.986       .  S
O225        C235   1.274       .  A
O226       Cu233   1.979       .  S
O226       C1324   1.273       .  A
O227       Cu233   2.021       .  S
O227        C237   1.281       .  A
O228       Cu233   2.032       .  S
O228       C1326   1.282       .  A
O229       Cu234   1.984       .  S
O229        C238   1.274       .  A
O230      Cu1322   1.987       .  S
O230        C237   1.274       .  A
O231       Cu234   2.031       .  S
O231        C236   1.282       .  A
O232       Cu234   2.035       .  S
O232       C2411   1.283   1_455  A
Cu233     Cu1322   2.370       .  S
Cu234      O2406   1.988       .  S
Cu234     Cu2409   2.370   1_455  S
C235       O1320   1.283       .  A
C235        C630   1.480       .  S
C236       O2402   1.273   1_455  A
C236       C1053   1.478       .  S
C237        C640   1.482       .  S
C238       O2404   1.282   1_455  A
C238        C773   1.485       .  S
O239       Cu247   1.976       .  S
O239        C249   1.273       .  A
O240       Cu247   1.983       .  S
O240        C250   1.273       .  A
O241       Cu247   2.034       .  S
O241        C251   1.282       .  A
O242       Cu247   2.033       .  S
O242        C252   1.283       .  A
O243       Cu248   1.985       .  S
O243        C252   1.273       .  A
O244       Cu248   1.987       .  S
O244        C251   1.274       .  A
O245       Cu248   2.039       .  S
O245        C250   1.284       .  A
O246       Cu248   2.034       .  S
O246        C249   1.282       .  A
Cu247      Cu248   2.367       .  S
C249        C643   1.482       .  S
C250        C610   1.487       .  S
C251        C620   1.487       .  S
C252       C1023   1.486       .  S
O253       Cu261   1.987       .  S
O253        C263   1.274       .  A
O254       Cu261   1.981   1_554  S
O254        C264   1.274       .  A
O255       Cu261   2.034       .  S
O255        C265   1.282       .  A
O256       Cu261   2.037       .  S
O256        C266   1.284       .  A
O257       Cu262   1.981       .  S
O257        C266   1.273       .  A
O258       Cu262   1.974       .  S
O258        C265   1.273       .  A
O259       Cu262   2.031   1_554  S
O259        C264   1.282       .  A
O260       Cu262   2.035       .  S
O260        C263   1.283       .  A
Cu261      Cu262   2.367       .  S
C263        C633   1.488       .  S
C264        C993   1.484       .  S
C265        C600   1.482       .  S
C266        C590   1.487       .  S
O267       Cu275   1.983   1_554  S
O267       C1365   1.274       .  A
O268       Cu275   1.989       .  S
O268        C278   1.274       .  A
O269       Cu275   2.034       .  S
O269       C1367   1.283       .  A
O270       Cu275   2.022       .  S
O270        C280   1.281       .  A
O271      Cu1364   1.985       .  S
O271        C280   1.274       .  A
O272       Cu276   1.985       .  S
O272        C279   1.274       .  A
O273       Cu276   2.030       .  S
O273       C2454   1.282   1_455  A
O274       Cu276   2.027   1_554  S
O274        C277   1.282       .  A
Cu275     Cu1364   2.371       .  S
Cu276      O2447   1.988       .  S
Cu276     Cu2451   2.371   1_455  S
C277       O2443   1.274   1_455  A
C277        C970   1.478       .  S
C278       O1361   1.282       .  A
C278        C623   1.479       .  S
C279       O2445   1.282   1_455  A
C279        C703   1.484       .  S
C280        C603   1.480       .  S
O281       Cu289   2.034       .  S
O281        C291   1.283       .  A
O282      Cu2465   2.024       .  S
O282       C2468   1.282   1_455  A
O283       Cu289   1.982       .  S
O283        C293   1.274       .  A
O284      Cu2465   1.988       .  S
O284       C2470   1.274   1_455  A
O285       Cu290   2.030       .  S
O285        C294   1.282       .  A
O286       Cu290   2.031       .  S
O286        C293   1.282       .  A
O287       Cu290   1.988       .  S
O287        C292   1.274       .  A
O288       Cu290   1.986       .  S
O288        C291   1.274       .  A
Cu289      O1370   2.023       .  S
Cu289      O1372   1.987       .  S
Cu289      Cu290   2.370       .  S
C291        C943   1.486       .  S
C292       O1370   1.281       .  A
C292        C580   1.483       .  S
C293        C723   1.478       .  S
C294       O1372   1.274       .  A
C294        C570   1.479       .  S
O295       Cu303   2.041       .  S
O295        C305   1.284       .  A
O296      Cu1391   2.038       .  S
O296       C1394   1.283       .  A
O297       Cu303   1.981       .  S
O297        C307   1.273       .  A
O298       Cu303   1.985       .  S
O298        C308   1.274       .  A
O299       Cu304   2.038       .  S
O299        C308   1.283       .  A
O300       Cu304   2.035       .  S
O300        C307   1.283       .  A
O301       Cu304   1.974       .  S
O301        C306   1.273       .  A
O302       Cu304   1.981       .  S
O302        C305   1.273       .  A
Cu303      O2472   2.038   1_455  S
Cu303      Cu304   2.367       .  S
C305        C613   1.488       .  S
C306       O2472   1.283   1_455  A
C306        C583   1.482       .  S
C307        C690   1.485       .  S
C308        C563   1.488       .  S
O309       Cu317   2.036       .  S
O309        C319   1.283       .  A
O310       Cu317   2.032       .  S
O310        C320   1.283       .  A
O311       Cu317   1.975       .  S
O311        C321   1.273       .  A
O312       Cu317   1.981       .  S
O312        C322   1.273       .  A
O313       Cu318   2.036       .  S
O313        C322   1.283       .  A
O314      Cu1406   2.033       .  S
O314       C1409   1.282       .  A
O315       Cu318   1.984       .  S
O315        C320   1.273       .  A
O316      Cu1406   1.985       .  S
O316       C1407   1.274       .  A
Cu317      Cu318   2.368       .  S
Cu318      O2490   2.032   1_455  S
Cu318      O2492   1.986       .  S
C319       O2492   1.274       .  A
C319        C573   1.487       .  S
C320        C663   1.485       .  S
C321       O2490   1.282   1_455  A
C321       C2729   1.478       .  S
C322        C540   1.486       .  S
O323       Cu331   2.036       .  S
O323        C333   1.283       .  A
O324       Cu331   2.035       .  S
O324        C334   1.283       .  A
O325       Cu331   1.984       .  S
O325        C335   1.274       .  A
O326       Cu331   1.982       .  S
O326        C336   1.273       .  A
O327       Cu332   2.034       .  S
O327        C336   1.283       .  A
O328      Cu2508   2.025       .  S
O328       C2511   1.282   1_455  A
O329       Cu332   1.982       .  S
O329        C334   1.273       .  A
O330       Cu332   1.986       .  S
O330        C333   1.274       .  A
Cu331      Cu332   2.369       .  S
Cu332      O1416   2.024       .  S
C333        C560   1.480       .  S
C334        C653   1.481       .  S
C335       O1416   1.282       .  A
C335        C550   1.482       .  S
C336       C1033   1.485       .  S
O337       Cu345   1.978       .  S
O337        C347   1.273       .  A
O338       Cu345   1.981       .  S
O338        C348   1.273       .  A
O339       Cu345   2.035       .  S
O339        C349   1.283       .  A
O340       Cu345   2.032       .  S
O340        C350   1.282       .  A
O341       Cu346   1.981       .  S
O341        C350   1.274       .  A
O342       Cu346   1.983       .  S
O342        C349   1.273       .  A
O343       Cu346   2.039       .  S
O343        C348   1.284       .  A
O344       Cu346   2.036       .  S
O344        C347   1.283       .  A
Cu345      Cu346   2.368       .  S
C347        C530   1.481       .  S
C348        C543   1.486       .  S
C349        C523   1.484       .  S
C350        C933   1.484       .  S
O351       Cu359   1.985       .  S
O351        C361   1.274       .  A
O352       Cu359   1.983       .  S
O352       C2538   1.273   1_455  A
O353       Cu359   2.037       .  S
O353        C363   1.283       .  A
O354       Cu359   2.036       .  S
O354        C364   1.283   1_455  A
O355       Cu360   1.983       .  S
O355       C1452   1.273       .  A
O356      Cu2536   1.980       .  S
O356        C363   1.273   1_655  A
O357       Cu360   2.032       .  S
O357        C362   1.283       .  A
O358      Cu2536   2.039       .  S
O358        C361   1.284   1_655  A
Cu359     Cu2536   2.369   1_455  S
Cu360      O1444   1.977       .  S
Cu360      O1446   2.038       .  S
Cu360     Cu1447   2.368       .  S
C361        C820   1.487       .  S
C362       O1440   1.273       .  A
C362        C533   1.485       .  S
C363        C903   1.480       .  S
C364       O2531   1.273       .  A
C364       C2689   1.484       .  S
O365       Cu373   1.981       .  S
O365       C1463   1.273       .  A
O366       Cu373   1.983       .  S
O366        C376   1.273       .  A
O367       Cu373   2.038       .  S
O367       C1465   1.284       .  A
O368       Cu373   2.030       .  S
O368        C378   1.282       .  A
O369       Cu374   1.984       .  S
O369       C2554   1.274   1_455  A
O370       Cu374   1.985       .  S
O370        C377   1.273       .  A
O371       Cu374   2.034       .  S
O371       C2552   1.283   1_455  A
O372       Cu374   2.033       .  S
O372        C375   1.283       .  A
Cu373     Cu1462   2.368       .  S
Cu374     Cu2549   2.369   1_455  S
C375       O2541   1.273   1_455  A
C375        C873   1.479       .  S
C376       O1459   1.283       .  A
C376        C520   1.484       .  S
C377       O2543   1.283   1_455  A
C377        C673   1.487       .  S
C378       O1457   1.274       .  A
C378        C503   1.484       .  S
O379       Cu387   1.982       .  S
O379        C389   1.274       .  A
O380       Cu387   1.986       .  S
O380        C390   1.274       .  A
O381       Cu387   2.039       .  S
O381        C391   1.283       .  A
O382       Cu387   2.037       .  S
O382        C392   1.283       .  A
O383       Cu388   1.977       .  S
O383        C392   1.272       .  A
O384       Cu388   1.980       .  S
O384        C391   1.273       .  A
O385       Cu388   2.034       .  S
O385        C390   1.283       .  A
O386       Cu388   2.031       .  S
O386        C389   1.282       .  A
Cu387      Cu388   2.367       .  S
C389        C500   1.483       .  S
C390        C493   1.485       .  S
C391        C510   1.486       .  S
C392        C853   1.485       .  S
O393       Cu401   2.041       .  S
O393        C403   1.284       .  A
O394       Cu401   2.029       .  S
O394        C404   1.282       .  A
O395       Cu401   1.984       .  S
O395        C405   1.273       .  A
O396       Cu401   1.986   1_554  S
O396        C406   1.274       .  A
O397       Cu402   2.037   1_554  S
O397        C406   1.283       .  A
O398       Cu402   2.031       .  S
O398        C405   1.283       .  A
O399       Cu402   1.982       .  S
O399        C404   1.273       .  A
O400       Cu402   1.980       .  S
O400        C403   1.273       .  A
Cu401      Cu402   2.370       .  S
C403        C593   1.487       .  S
C404        C480   1.479       .  S
C405        C760   1.480       .  S
C406        C470   1.481       .  S
O407       Cu415   2.030       .  S
O407        C417   1.282   1_455  A
O408       Cu415   2.037   1_655  S
O408       C2594   1.283       .  A
O409       Cu415   1.984   1_554  S
O409        C419   1.273   1_455  A
O410       Cu415   1.976       .  S
O410       C2596   1.273   1_455  A
O411       Cu416   2.034       .  S
O411        C420   1.283       .  A
O412       Cu416   2.035   1_554  S
O412       C1507   1.283       .  A
O413       Cu416   1.986       .  S
O413        C418   1.274       .  A
O414       Cu416   1.983       .  S
O414       C1505   1.274       .  A
Cu415     Cu2592   2.368   1_455  S
Cu416     Cu1503   2.369       .  S
C417       O2590   1.273       .  A
C417        C483   1.484   1_655  S
C418       O1496   1.283       .  A
C418        C863   1.487       .  S
C419       O2588   1.283       .  A
C419        C460   1.485   1_655  S
C420       O1498   1.273       .  A
C420        C753   1.478       .  S
O421       Cu429   2.035       .  S
O421        C431   1.283       .  A
O422      Cu2605   2.026       .  S
O422       C2608   1.282       .  A
O423       Cu429   1.984       .  S
O423        C433   1.273       .  A
O424      Cu2605   1.989       .  S
O424       C2610   1.275   1_455  A
O425       Cu430   2.033       .  S
O425        C434   1.283       .  A
O426       Cu430   2.030       .  S
O426        C433   1.282       .  A
O427       Cu430   1.982       .  S
O427        C432   1.274       .  A
O428       Cu430   1.985       .  S
O428        C431   1.274       .  A
Cu429      O1510   2.025       .  S
Cu429      O1512   1.990       .  S
Cu429      Cu430   2.369       .  S
C431       C1000   1.485       .  S
C432       O1510   1.282       .  A
C432        C450   1.482       .  S
C433        C793   1.478       .  S
C434       O1512   1.275       .  A
C434        C473   1.488       .  S
O435       Cu443   2.028       .  S
O435        C445   1.282       .  A
O436       Cu443   2.033       .  S
O436        C446   1.282       .  A
O437       Cu443   1.984       .  S
O437        C447   1.273       .  A
O438       Cu443   1.980       .  S
O438        C448   1.274       .  A
O439       Cu444   2.036       .  S
O439        C448   1.283       .  A
O440       Cu444   2.038       .  S
O440        C447   1.283       .  A
O441       Cu444   1.986       .  S
O441        C446   1.274       .  A
O442       Cu444   1.981       .  S
O442        C445   1.274       .  A
Cu443      Cu444   2.368       .  S
C445        C453   1.482       .  S
C446        C490   1.485       .  S
C447        C463   1.486       .  S
C448        C810   1.485       .  S
C449        C450   1.409       .  A
C449        C454   1.397       .  A
C449        H456   1.082       .  S
C450       C1539   1.404       .  A
C451        C452   1.396       .  A
C451       C2626   1.404       .  A
C451        F458   1.357       .  S
C452        C453   1.409       .  A
C452        H457   1.082       .  S
C453       C2630   1.405   1_455  A
C454       C1541   1.405       .  A
C454        F455   1.357       .  S
C459        C460   1.402   1_655  A
C459        C464   1.399       .  A
C459       H2642   1.083       .  S
C460        C461   1.413       .  A
C461        C462   1.399       .  A
C461        F468   1.358       .  S
C462        C463   1.402       .  A
C462        H467   1.083       .  S
C463        C464   1.414   1_455  A
C464       F2641   1.358       .  S
F465       C1552   1.358       .  S
H466       C1547   1.083       .  S
C469        C474   1.400       .  A
C469       C1558   1.407       .  A
C469        H476   1.083       .  S
C470        C471   1.403       .  A
C470       C2645   1.407   1_455  A
C471        C472   1.400       .  A
C471        F478   1.357       .  S
C472       C2649   1.411       .  A
C472        H477   1.083       .  S
C473        C474   1.407       .  A
C473       C1560   1.411       .  A
C474        F475   1.357       .  S
C479        C484   1.397       .  A
C479       C1568   1.400       .  A
C479        H486   1.083       .  S
C480        C481   1.411       .  A
C480       C2655   1.400   1_455  A
C481        C482   1.398       .  A
C481        F488   1.358       .  S
C482        C483   1.403       .  A
C482        H487   1.083       .  S
C483       C2660   1.414   1_455  A
C484       C1571   1.414       .  A
C484        F485   1.357       .  S
C489        C490   1.410       .  A
C489        C494   1.399       .  A
C489        H496   1.083       .  S
C490        C491   1.406       .  A
C491        C492   1.399       .  A
C491        F498   1.357       .  S
C492        C493   1.410       .  A
C492        H497   1.083       .  S
C493        C494   1.406       .  A
C494        F495   1.357       .  S
C499        C500   1.409       .  A
C499        C504   1.398       .  A
C499        H506   1.082       .  S
C500       C1589   1.404       .  A
C501        C502   1.397   1_655  A
C501       C2676   1.404       .  A
C501        F508   1.357   1_655  S
C502       C2679   1.410   1_455  A
C502        H507   1.082       .  S
C503        C504   1.405       .  A
C503       C1590   1.410       .  A
C504        F505   1.357       .  S
C509        C510   1.403       .  A
C509        C514   1.399       .  A
C509        H516   1.083       .  S
C510       C1599   1.414       .  A
C511        C512   1.398   1_655  A
C511       C2686   1.414       .  A
C511        F518   1.357   1_655  S
C512       C2689   1.401   1_455  A
C512        H517   1.083       .  S
C513       C1452   1.484       .  S
C513        C514   1.413       .  A
C513       C1600   1.401       .  A
C514        F515   1.358       .  S
C519       C2696   1.401   1_455  A
C519       C2700   1.398   1_455  A
C519        H526   1.083       .  S
C520        C521   1.413       .  A
C520       C1607   1.402       .  A
C521        C522   1.398       .  A
C521        F528   1.357       .  S
C522        C523   1.402       .  A
C522        H527   1.083       .  S
C523        C524   1.413       .  A
C524       C1607   1.399       .  A
C524       F1613   1.358       .  S
F525       C2700   1.358   1_455  S
C529        C530   1.401       .  A
C529        C534   1.399       .  A
C529       H1624   1.083       .  S
C530        C531   1.411       .  A
C531        C532   1.397       .  A
C531        F538   1.357       .  S
C532        C533   1.402       .  A
C532        H537   1.083       .  S
C533        C534   1.414       .  A
C534       F1623   1.357       .  S
F535       C2710   1.357       .  S
H536       C2705   1.083   1_455  S
C539        C540   1.402       .  A
C539        C544   1.398       .  A
C539        H546   1.083       .  S
C540        C541   1.414       .  A
C541        C542   1.398       .  A
C541        F548   1.358       .  S
C542        C543   1.402       .  A
C542        H547   1.083       .  S
C543        C544   1.414       .  A
C544        F545   1.358       .  S
C549        C554   1.396       .  A
C549       C2726   1.402       .  A
C549        H556   1.083       .  S
C550        C551   1.413       .  A
C550       C1637   1.402       .  A
C551        C552   1.398       .  A
C551        F558   1.357       .  S
C552        C553   1.401       .  A
C552        H557   1.083       .  S
C553       C1409   1.478       .  S
C553       C1642   1.411       .  A
C554       C2729   1.411       .  A
C554        F555   1.357       .  S
C559        C564   1.400       .  A
C559       C2736   1.408       .  A
C559        H566   1.083       .  S
C560        C561   1.403       .  A
C560       C1647   1.408       .  A
C561        C562   1.399       .  A
C561        F568   1.357       .  S
C562       C1651   1.411       .  A
C562        H567   1.083       .  S
C563        C564   1.407       .  A
C563       C2738   1.411   1_455  A
C564        F565   1.357       .  S
C569        C574   1.401       .  A
C569       C2746   1.408       .  A
C569        H576   1.083       .  S
C570        C571   1.402       .  A
C570       C1657   1.408       .  A
C571        C572   1.397       .  A
C571        F578   1.357       .  S
C572       C1661   1.410       .  A
C572        H577   1.083       .  S
C573        C574   1.407       .  A
C573       C2748   1.410   1_455  A
C574        F575   1.357       .  S
C579        C580   1.410       .  A
C579        C584   1.399       .  A
C579        H586   1.082       .  S
C580       C1669   1.405       .  A
C581        C582   1.395       .  A
C581       C2756   1.405       .  A
C581        F588   1.357       .  S
C582        C583   1.409       .  A
C582        H587   1.083       .  S
C583       C2760   1.404   1_455  A
C584       C1671   1.404       .  A
C584        F585   1.357       .  S
C589        C590   1.402       .  A
C589        C594   1.398   1_565  A
C589        H596   1.083       .  S
C590        C591   1.415       .  A
C591        C592   1.399   1_565  A
C591        F598   1.358       .  S
C592        C593   1.402       .  A
C592        H597   1.083       .  S
C593        C594   1.415       .  A
C594        F595   1.358       .  S
C599        C600   1.409       .  A
C599        C604   1.395       .  A
C599        H606   1.082       .  S
C600        C601   1.405       .  A
C601        C602   1.399       .  A
C601       F1696   1.357       .  S
C602        C603   1.409       .  A
C602       H1695   1.082       .  S
C603        C604   1.404       .  A
C604        F605   1.357       .  S
H607       C2778   1.082       .  S
F608       C2777   1.357   1_455  S
C609        C610   1.403       .  A
C609        C614   1.399       .  A
C609        H616   1.083       .  S
C610        C611   1.414       .  A
C611        C612   1.399       .  A
C611        F618   1.358       .  S
C612        C613   1.402       .  A
C612        H617   1.083       .  S
C613        C614   1.415       .  A
C614        F615   1.358       .  S
C619        C620   1.411       .  A
C619        C624   1.398       .  A
C619        H626   1.083       .  S
C620        C621   1.407       .  A
C621        C622   1.400       .  A
C621        F628   1.357       .  S
C622        C623   1.407       .  A
C622        H627   1.083       .  S
C623        C624   1.402       .  A
C624       F1713   1.357       .  S
F625       C2800   1.357       .  S
C629        C630   1.408       .  A
C629        C634   1.400       .  A
C629        H636   1.084       .  S
C630        C631   1.402       .  A
C631        C632   1.400       .  A
C631       F1726   1.357       .  S
C632        C633   1.411       .  A
C632        H637   1.083       .  S
C633        C634   1.407       .  A
C634        F635   1.357       .  S
F638       C2807   1.357       .  S
C639        C640   1.410       .  A
C639        C644   1.399       .  A
C639        H646   1.082       .  S
C640        C641   1.404       .  A
C641        C642   1.395       .  A
C641        F648   1.357       .  S
C642        C643   1.409       .  A
C642        H647   1.082       .  S
C643        C644   1.405       .  A
C644        F645   1.357       .  S
C649        C650   1.402       .  A
C649        C654   1.398       .  A
C649        H656   1.082       .  S
C650        C651   1.414       .  A
C651        C652   1.399       .  A
C651        F658   1.357       .  S
C652        C653   1.400       .  A
C652        H657   1.083       .  S
C653        C654   1.411       .  A
C654        F655   1.357       .  S
C659        C660   1.401       .  A
C659        C664   1.398       .  A
C659        H666   1.083       .  S
C660        C661   1.411       .  A
C661        C662   1.398       .  A
C661        F668   1.357       .  S
C662        C663   1.403       .  A
C662        H667   1.083       .  S
C663        C664   1.414       .  A
C664        F665   1.357   1_455  S
C669        C670   1.403       .  A
C669        C674   1.400       .  A
C669        H676   1.083       .  S
C670        C671   1.415       .  A
C671        C672   1.398       .  A
C671        F678   1.358   1_455  S
C672        C673   1.402       .  A
C672       H2853   1.083   1_455  S
C673        C674   1.415       .  A
C674        F675   1.358       .  S
H677       C1760   1.083       .  S
C679        C680   1.402       .  A
C679        C684   1.396       .  A
C679        H686   1.083       .  S
C680        C681   1.414       .  A
C681        C682   1.398       .  A
C681        F688   1.357       .  S
C682        C683   1.401       .  A
C682        H687   1.083       .  S
C683        C684   1.411       .  A
C684        F685   1.358       .  S
C689        C690   1.403       .  A
C689        C694   1.398       .  A
C689        H696   1.083       .  S
C690        C691   1.414       .  A
C691        C692   1.398       .  A
C691        F698   1.357   1_455  S
C692        C693   1.400       .  A
C692        H697   1.083       .  S
C693        C694   1.411       .  A
C694        F695   1.357       .  S
C699        C700   1.409   1_554  A
C699        C704   1.398       .  A
C699        H706   1.083   1_455  S
C700        C701   1.406       .  A
C701        C702   1.398       .  A
C701        F708   1.357       .  S
C702        C703   1.409       .  A
C702        H707   1.083       .  S
C703        C704   1.405   1_556  A
C704       F2881   1.357   1_455  S
F705       C1792   1.357       .  S
C709        C710   1.408       .  A
C709        C714   1.401       .  A
C709        H716   1.083       .  S
C710        C711   1.403       .  A
C711        C712   1.398       .  A
C711        F718   1.357       .  S
C712        C713   1.411       .  A
C712        H717   1.083       .  S
C713        C714   1.407       .  A
C714        F715   1.357       .  S
C719        C720   1.411       .  A
C719        C724   1.398       .  A
C719        H726   1.083       .  S
C720        C721   1.406       .  A
C721        C722   1.397       .  A
C721        F728   1.357       .  S
C722        C723   1.407       .  A
C722        H727   1.083       .  S
C723        C724   1.403       .  A
C724        F725   1.357       .  S
C729        C730   1.411       .  A
C729        C734   1.399       .  A
C729        H736   1.083       .  S
C730        C731   1.407       .  A
C731        C732   1.400       .  A
C731        F738   1.357       .  S
C732        C733   1.408       .  A
C732        H737   1.083       .  S
C733        C734   1.403       .  A
C734        F735   1.357       .  S
C739        C740   1.410       .  A
C739        C744   1.399       .  A
C739        H746   1.083       .  S
C740        C741   1.406       .  A
C741        C742   1.395       .  A
C741        F748   1.357       .  S
C742        C743   1.408       .  A
C742        H747   1.083       .  S
C743        C744   1.404       .  A
C744        F745   1.357       .  S
C749        C750   1.411       .  A
C749        C754   1.398       .  A
C749        H756   1.082       .  S
C750        C751   1.405       .  A
C751        C752   1.398       .  A
C751       F1846   1.357       .  S
C752        C753   1.408       .  A
C752       H1845   1.083       .  S
C753        C754   1.402       .  A
C754        F755   1.357       .  S
H757       C2928   1.083   1_455  S
F758       C2927   1.357   1_455  S
C759        C760   1.399       .  A
C759        C764   1.396       .  A
C759        H766   1.083       .  S
C760        C761   1.411       .  A
C761        C762   1.399       .  A
C761        F768   1.357   1_455  S
C762        C763   1.403       .  A
C762        H767   1.083       .  S
C763        C764   1.414       .  A
C764        F765   1.357       .  S
C769        C770   1.410       .  A
C769        C774   1.400   1_545  A
C769        H776   1.083   1_455  S
C770        C771   1.405       .  A
C771        C772   1.397   1_545  A
C771        F778   1.357       .  S
C772        C773   1.409       .  A
C772        H777   1.083       .  S
C773        C774   1.406       .  A
C774       F2951   1.357   1_455  S
F775       C1862   1.357       .  S
C779        C780   1.409       .  A
C779        C784   1.399       .  A
C779        H786   1.083       .  S
C780        C781   1.404       .  A
C781        C782   1.396       .  A
C781        F788   1.358       .  S
C782        C783   1.410       .  A
C782        H787   1.083       .  S
C783        C784   1.406       .  A
C784        F785   1.357       .  S
C789        C790   1.403       .  A
C789        C794   1.399       .  A
C789        H796   1.083       .  S
C790        C791   1.415       .  A
C791        C792   1.396       .  A
C791        F798   1.357       .  S
C792        C793   1.399       .  A
C792        H797   1.083       .  S
C793        C794   1.411       .  A
C794        F795   1.357       .  S
C799        C800   1.411       .  A
C799        C804   1.398       .  A
C799        H806   1.083       .  S
C800        C801   1.406       .  A
C801        C802   1.399       .  A
C801        F808   1.357       .  S
C802        C803   1.408       .  A
C802        H807   1.084       .  S
C803        C804   1.402       .  A
C804        F805   1.357       .  S
C809        C810   1.411       .  A
C809        C814   1.398       .  A
C809        H816   1.082       .  S
C810        C811   1.405       .  A
C811        C812   1.399       .  A
C811        F818   1.357       .  S
C812        C813   1.408       .  A
C812        H817   1.082       .  S
C813        C814   1.403       .  A
C814        F815   1.357       .  S
C819        C820   1.411       .  A
C819        C824   1.400       .  A
C819        H826   1.083       .  S
C820        C821   1.405       .  A
C821        C822   1.399       .  A
C821        F828   1.357   1_455  S
C822        C823   1.410       .  A
C822        H827   1.083   1_455  S
C823        C824   1.406       .  A
C824        F825   1.357       .  S
C829        C830   1.401       .  A
C829        C834   1.398       .  A
C829        H836   1.083       .  S
C830        C831   1.412       .  A
C831        C832   1.400       .  A
C831        F838   1.357       .  S
C832        C833   1.404       .  A
C832        H837   1.083       .  S
C833        C834   1.414       .  A
C834        F835   1.358       .  S
C839        C840   1.409       .  A
C839        C844   1.396       .  A
C839        H846   1.082       .  S
C840        C841   1.405       .  A
C841        C842   1.398       .  A
C841        F848   1.357       .  S
C842        C843   1.409       .  A
C842        H847   1.082       .  S
C843        C844   1.404       .  A
C844        F845   1.357       .  S
C849        C850   1.400       .  A
C849        C854   1.397       .  A
C849        H856   1.083       .  S
C850        C851   1.411       .  A
C851        C852   1.398       .  A
C851        F858   1.357       .  S
C852        C853   1.403       .  A
C852        H857   1.083       .  S
C853        C854   1.415       .  A
C854        F855   1.357       .  S
C859        C860   1.410       .  A
C859        C864   1.399       .  A
C859        H866   1.083       .  S
C860        C861   1.406       .  A
C861        C862   1.400       .  A
C861        F868   1.357   1_556  S
C862        C863   1.410       .  A
C862        H867   1.083   1_556  S
C863        C864   1.406       .  A
C864       F1953   1.357       .  S
F865       C3040   1.357   1_455  S
C869        C870   1.402   1_655  A
C869        C874   1.398       .  A
C869       H3052   1.082       .  S
C870        C871   1.414       .  A
C871        C872   1.397       .  A
C871        F878   1.357       .  S
C872        C873   1.399       .  A
C872        H877   1.083       .  S
C873        C874   1.411   1_455  A
C874       F3051   1.357       .  S
F875       C1962   1.357       .  S
H876       C1957   1.083       .  S
C879        C880   1.402       .  A
C879        C884   1.398       .  A
C879        H886   1.083       .  S
C880        C881   1.414       .  A
C881       C1970   1.399       .  A
C881        F888   1.358   1_556  S
C882        C883   1.402       .  A
C882       C3057   1.399       .  A
C882        H887   1.083   1_556  S
C883       C3060   1.414   1_455  A
C884       C1971   1.414       .  A
C884        F885   1.358       .  S
C889        C890   1.410       .  A
C889        C894   1.400       .  A
C889        H896   1.082       .  S
C890        C891   1.404       .  A
C891        C892   1.396       .  A
C891        F898   1.357       .  S
C892        C893   1.409       .  A
C892        H897   1.082       .  S
C893        C894   1.405       .  A
C894        F895   1.357       .  S
C899        C900   1.403   1_655  A
C899        C904   1.398       .  A
C899        H906   1.083       .  S
C900        C901   1.415       .  A
C901        C902   1.399       .  A
C901        F908   1.357       .  S
C902        C903   1.400       .  A
C902        H907   1.083       .  S
C903        C904   1.411   1_455  A
C904       F3081   1.358       .  S
F905       C1992   1.357       .  S
C909        C910   1.403       .  A
C909        C914   1.399       .  A
C909        H916   1.083       .  S
C910       C3087   1.414   1_455  A
C911        C912   1.398       .  A
C911       C1998   1.414       .  A
C911        F918   1.358       .  S
C912        C913   1.402       .  A
C912        H917   1.083       .  S
C913       C2002   1.414       .  A
C914       C3089   1.414   1_455  A
C914        F915   1.358       .  S
C919        C920   1.408       .  A
C919        C924   1.400       .  A
C919        H926   1.083       .  S
C920        C921   1.402       .  A
C921        C922   1.398       .  A
C921        F928   1.357       .  S
C922        C923   1.410       .  A
C922        H927   1.083       .  S
C923        C924   1.406       .  A
C924        F925   1.357   1_455  S
C929        C930   1.409       .  A
C929        C934   1.398       .  A
C929        H936   1.082       .  S
C930        C931   1.403       .  A
C931        C932   1.398       .  A
C931        F938   1.357       .  S
C932        C933   1.410       .  A
C932        H937   1.082       .  S
C933        C934   1.405       .  A
C934        F935   1.357       .  S
C939        C940   1.410       .  A
C939        C944   1.398       .  A
C939        H946   1.083       .  S
C940        C941   1.406       .  A
C941        C942   1.400       .  A
C941        F948   1.357       .  S
C942        C943   1.410       .  A
C942        H947   1.083       .  S
C943        C944   1.405       .  A
C944        F945   1.357       .  S
C949        C950   1.401       .  A
C949        C954   1.398       .  A
C949        H956   1.083       .  S
C950        C951   1.412       .  A
C951        C952   1.399       .  A
C951        F958   1.358       .  S
C952        C953   1.403       .  A
C952        H957   1.083   1_455  S
C953        C954   1.415       .  A
C954        F955   1.358       .  S
C959        C960   1.402       .  A
C959        C964   1.399       .  A
C959        H966   1.083       .  S
C960        C961   1.411       .  A
C961        C962   1.396       .  A
C961        F968   1.357   1_455  S
C962        C963   1.402       .  A
C962        H967   1.083       .  S
C963        C964   1.414       .  A
C964        F965   1.357       .  S
C969       C2058   1.407       .  A
C969       C2062   1.398       .  A
C969        H976   1.083       .  S
C970        C971   1.403       .  A
C970       C3145   1.408   1_455  A
C971        C972   1.397       .  A
C971        F978   1.357       .  S
C972        C973   1.410       .  A
C972        H977   1.082       .  S
C973        C974   1.406   1_455  A
C974       C3145   1.397       .  A
C974       F3151   1.357       .  S
F975       C2062   1.357       .  S
C979        C980   1.402       .  A
C979        C984   1.399       .  A
C979        H986   1.083       .  S
C980        C981   1.414       .  A
C981        C982   1.399       .  A
C981        F988   1.358       .  S
C982       C2071   1.402       .  A
C982       H2075   1.083       .  S
C983       C3158   1.402       .  A
C983       C3160   1.414   1_455  A
C984       C2071   1.414       .  A
C984        F985   1.357       .  S
H987       C3158   1.083       .  S
C989        C990   1.408       .  A
C989        C994   1.397       .  A
C989        H996   1.083       .  S
C990        C991   1.403       .  A
C991        C992   1.398       .  A
C991        F998   1.357       .  S
C992        C993   1.411       .  A
C992        H997   1.082       .  S
C993        C994   1.405       .  A
C994        F995   1.357       .  S
C999       C1000   1.410       .  A
C999       C1004   1.399   1_545  A
C999       H1006   1.083       .  S
C1000      C1001   1.406       .  A
C1001      C1002   1.399   1_545  A
C1001      F1008   1.357       .  S
C1002      C1003   1.410       .  A
C1002      H1007   1.083       .  S
C1003      C1004   1.405       .  A
C1004      F1005   1.357       .  S
C1009      C1010   1.410       .  A
C1009      C1014   1.398       .  A
C1009      H1016   1.082       .  S
C1010      C1011   1.405       .  A
C1011      C1012   1.396       .  A
C1011      F1018   1.357       .  S
C1012      C1013   1.409       .  A
C1012      H1017   1.083       .  S
C1013      C1014   1.404       .  A
C1014      F1015   1.357       .  S
C1019      C1020   1.401       .  A
C1019      C1024   1.399       .  A
C1019      H1026   1.083       .  S
C1020      C1021   1.411       .  A
C1021      C1022   1.398       .  A
C1021      F1028   1.357       .  S
C1022      C1023   1.403       .  A
C1022      H1027   1.083       .  S
C1023      C1024   1.414       .  A
C1024      F1025   1.357       .  S
C1029      C1030   1.402       .  A
C1029      C1034   1.399       .  A
C1029      H1036   1.083       .  S
C1030      C1031   1.414       .  A
C1031      C1032   1.397       .  A
C1031      F1038   1.357       .  S
C1032      C1033   1.402       .  A
C1032      H1037   1.083       .  S
C1033      C1034   1.414       .  A
C1034      F1035   1.358       .  S
C1039      C1040   1.411       .  A
C1039      C1044   1.400       .  A
C1039      H1046   1.083       .  S
C1040      C1041   1.407       .  A
C1041      C1042   1.400       .  A
C1041      F1048   1.357   1_455  S
C1042      C1043   1.408       .  A
C1042      H1047   1.083       .  S
C1043      C1044   1.403       .  A
C1044      F1045   1.357       .  S
C1049      C1050   1.402   1_655  A
C1049      C3230   1.397       .  A
C1049      H3232   1.083       .  S
C1050      C1051   1.414       .  A
C1051      C1052   1.397       .  A
C1051      F1058   1.357       .  S
C1052      C1053   1.400       .  A
C1052      H1057   1.083       .  S
C1053      C3230   1.411   1_455  A
C1054      C2137   1.397       .  A
C1054      C2141   1.411       .  A
C1054      F1055   1.357       .  S
H1056      C2137   1.082       .  S
C1059      C1060   1.402       .  A
C1059      C3240   1.398   1_565  A
C1059      H1066   1.083       .  S
C1060      C3237   1.414   1_455  A
C1061      C1062   1.399   1_565  A
C1061      C2148   1.414       .  A
C1061      F1068   1.358       .  S
C1062      C1063   1.403       .  A
C1062      H1067   1.083       .  S
C1063      C1064   1.414       .  A
C1064      C2147   1.398   1_545  A
C1064      F1065   1.357       .  S
C1069      C1070   1.402       .  A
C1069      C1074   1.397       .  A
C1069      H1076   1.083       .  S
C1070      C1071   1.414       .  A
C1071      C1072   1.399       .  A
C1071      F1078   1.357       .  S
C1072      C1073   1.402       .  A
C1072      H1077   1.083   1_455  S
C1073      C1074   1.412       .  A
C1074      F1075   1.358       .  S
C1079      C1080   1.401       .  A
C1079      C1084   1.398       .  A
C1079      H1086   1.083       .  S
C1080      C1081   1.410       .  A
C1081      C1082   1.396       .  A
C1081      F1088   1.358   1_455  S
C1082      C1083   1.403       .  A
C1082      H1087   1.083       .  S
C1083      C1084   1.414       .  A
C1084      F1085   1.357       .  S
O1089     Cu1097   1.984       .  S
O1089      C1099   1.273       .  A
O1090     Cu1097   1.979       .  S
O1090      C1100   1.273       .  A
O1091     Cu1097   2.031       .  S
O1091      C1101   1.283       .  A
O1092     Cu1097   2.037       .  S
O1092      C1102   1.283       .  A
O1093     Cu1098   1.981       .  S
O1093      C1102   1.273       .  A
O1094     Cu1098   1.978       .  S
O1094      C1101   1.273       .  A
O1095     Cu1098   2.031       .  S
O1095      C1100   1.282       .  A
O1096     Cu1098   2.034       .  S
O1096      C1099   1.283       .  A
Cu1097    Cu1098   2.368       .  S
C1099      C2148   1.486       .  S
C1100      C2168   1.478       .  S
C1101      C2138   1.483       .  S
C1102      C2161   1.484       .  S
O1103     Cu1111   1.984       .  S
O1103      C1113   1.274       .  A
O1104     Cu1111   1.980       .  S
O1104      C1114   1.273       .  A
O1105     Cu1111   2.035       .  S
O1105      C1115   1.283       .  A
O1106     Cu1111   2.033       .  S
O1106      C1116   1.282       .  A
O1107     Cu1112   1.985       .  S
O1107      C1116   1.274       .  A
O1108     Cu1112   1.990       .  S
O1108      C1115   1.274       .  A
O1109     Cu1112   2.037       .  S
O1109      C1114   1.283       .  A
O1110     Cu1112   2.027       .  S
O1110      C1113   1.282       .  A
Cu1111    Cu1112   2.369       .  S
C1113      C2171   1.483       .  S
C1114      C2118   1.485       .  S
C1115      C2131   1.482       .  S
C1116      C2108   1.481       .  S
O1117     Cu1125   1.987       .  S
O1117      C1127   1.274       .  A
O1118     Cu1125   1.982       .  S
O1118      C1128   1.274       .  A
O1119     Cu1125   2.026       .  S
O1119      C1129   1.282       .  A
O1120     Cu1125   2.033       .  S
O1120      C1130   1.282       .  A
O1121     Cu1126   1.985       .  S
O1121      C1130   1.274       .  A
O1122     Cu1126   1.986       .  S
O1122      C1129   1.274       .  A
O1123     Cu1126   2.032       .  S
O1123      C1128   1.282       .  A
O1124     Cu1126   2.031       .  S
O1124      C1127   1.283       .  A
Cu1125    Cu1126   2.369       .  S
C1127      C2158   1.484       .  S
C1128      C2078   1.480       .  S
C1129      C2098   1.484       .  S
C1130      C2091   1.485       .  S
O1131     Cu1139   1.988       .  S
O1131      C1141   1.275       .  A
O1132     Cu1139   1.982       .  S
O1132      C1142   1.274       .  A
O1133     Cu1139   2.034       .  S
O1133      C1143   1.282       .  A
O1134     Cu1139   2.036       .  S
O1134      C1144   1.283       .  A
O1135     Cu1140   1.983       .  S
O1135      C1144   1.273       .  A
O1136     Cu1140   1.979       .  S
O1136      C1143   1.274       .  A
O1137     Cu1140   2.028       .  S
O1137      C1142   1.282       .  A
O1138     Cu1140   2.034       .  S
O1138      C1141   1.283       .  A
Cu1139    Cu1140   2.368       .  S
C1141      C2128   1.488       .  S
C1142      C2061   1.483       .  S
C1143      C2101   1.482       .  S
C1144      C2071   1.487       .  S
O1145     Cu1153   1.981       .  S
O1145      C1155   1.273       .  A
O1146     Cu1153   1.978       .  S
O1146      C1156   1.273       .  A
O1147     Cu1153   2.027       .  S
O1147      C1157   1.282       .  A
O1148     Cu1153   2.035       .  S
O1148      C1158   1.283       .  A
O1149     Cu1154   1.985       .  S
O1149      C1158   1.274       .  A
O1150     Cu1154   1.985       .  S
O1150      C1157   1.274       .  A
O1151     Cu1154   2.035       .  S
O1151      C1156   1.283       .  A
O1152     Cu1154   2.035       .  S
O1152      C1155   1.283       .  A
Cu1153    Cu1154   2.369       .  S
C1155      C2038   1.482       .  S
C1156      C2018   1.481       .  S
C1157      C2051   1.484       .  S
C1158      C2028   1.486       .  S
O1159     Cu1167   1.984       .  S
O1159      C1169   1.273       .  A
O1160     Cu1167   1.985       .  S
O1160      C1170   1.274       .  A
O1161     Cu1167   2.038       .  S
O1161      C1171   1.283       .  A
O1162     Cu1167   2.035       .  S
O1162      C1172   1.283       .  A
O1163     Cu1168   1.977       .  S
O1163      C1172   1.273       .  A
O1164     Cu1168   1.982       .  S
O1164      C1171   1.273       .  A
O1165     Cu1168   2.032       .  S
O1165      C1170   1.282       .  A
O1166     Cu1168   2.029       .  S
O1166      C1169   1.282       .  A
Cu1167    Cu1168   2.368       .  S
C1169      C1988   1.484       .  S
C1170      C2011   1.486       .  S
C1171      C1998   1.486       .  S
C1172      C2048   1.481       .  S
O1173     Cu1181   1.981       .  S
O1173      C1183   1.273       .  A
O1174     Cu1181   1.977       .  S
O1174      C1184   1.273       .  A
O1175     Cu1181   2.037   1_554  S
O1175      C1185   1.283       .  A
O1176     Cu1181   2.037       .  S
O1176      C1186   1.283       .  A
O1177     Cu1182   1.977       .  S
O1177      C1186   1.272       .  A
O1178     Cu1182   1.976   1_554  S
O1178      C1185   1.272       .  A
O1179     Cu1182   2.036       .  S
O1179      C1184   1.283       .  A
O1180     Cu1182   2.038       .  S
O1180      C1183   1.283       .  A
Cu1181    Cu1182   2.367       .  S
C1183      C1971   1.486       .  S
C1184      C1981   1.484       .  S
C1185      C1958   1.485       .  S
C1186      C2041   1.485       .  S
O1187     Cu1195   1.983   1_554  S
O1187      C1197   1.273       .  A
O1188     Cu1195   1.987       .  S
O1188      C1198   1.274       .  A
O1189     Cu1195   2.037       .  S
O1189      C1199   1.283       .  A
O1190     Cu1195   2.026       .  S
O1190      C1200   1.282       .  A
O1191     Cu1196   1.991       .  S
O1191      C1200   1.275       .  A
O1192     Cu1196   1.987       .  S
O1192      C1199   1.275       .  A
O1193     Cu1196   2.030       .  S
O1193      C1198   1.282       .  A
O1194     Cu1196   2.030   1_554  S
O1194      C1197   1.282       .  A
Cu1195    Cu1196   2.370       .  S
C1197      C1938   1.479       .  S
C1198      C2008   1.479       .  S
C1199      C1948   1.486       .  S
C1200      C1978   1.484       .  S
O1201     Cu1209   2.033       .  S
O1201      C1211   1.283       .  A
O1202     Cu1209   2.031       .  S
O1202      C1212   1.282       .  A
O1203     Cu1209   1.986       .  S
O1203      C1213   1.274       .  A
O1204     Cu1209   1.987       .  S
O1204      C1214   1.274       .  A
O1205     Cu1210   2.035       .  S
O1205      C1214   1.283       .  A
O1206     Cu1210   2.026       .  S
O1206      C1213   1.282       .  A
O1207     Cu1210   1.983       .  S
O1207      C1212   1.274       .  A
O1208     Cu1210   1.988       .  S
O1208      C1211   1.274       .  A
Cu1209    Cu1210   2.369       .  S
C1211      C1918   1.484       .  S
C1212      C1901   1.481       .  S
C1213      C1931   1.482       .  S
C1214      C1911   1.486       .  S
O1215     Cu1223   2.037       .  S
O1215      C1225   1.283       .  A
O1216     Cu1223   2.034       .  S
O1216      C1226   1.283       .  A
O1217     Cu1223   1.977       .  S
O1217      C1227   1.273       .  A
O1218     Cu1223   1.980       .  S
O1218      C1228   1.273       .  A
O1219     Cu1224   2.036       .  S
O1219      C1228   1.283       .  A
O1220     Cu1224   2.034       .  S
O1220      C1227   1.283       .  A
O1221     Cu1224   1.977       .  S
O1221      C1226   1.273       .  A
O1222     Cu1224   1.982       .  S
O1222      C1225   1.273       .  A
Cu1223    Cu1224   2.367       .  S
C1225      C2151   1.487       .  S
C1226      C1928   1.483       .  S
C1227      C1878   1.484       .  S
C1228      C1888   1.485       .  S
O1229     Cu1237   2.033       .  S
O1229      C1239   1.283       .  A
O1230     Cu1237   2.033       .  S
O1230      C1240   1.283       .  A
O1231     Cu1237   1.985       .  S
O1231      C1241   1.274       .  A
O1232     Cu1237   1.984       .  S
O1232      C1242   1.274       .  A
O1233     Cu1238   2.031       .  S
O1233      C1242   1.282       .  A
O1234     Cu1238   2.025       .  S
O1234      C1241   1.282       .  A
O1235     Cu1238   1.980       .  S
O1235      C1240   1.273       .  A
O1236     Cu1238   1.984       .  S
O1236      C1239   1.274       .  A
Cu1237    Cu1238   2.370       .  S
C1239      C1891   1.478       .  S
C1240      C1851   1.485       .  S
C1241      C1868   1.481       .  S
C1242      C1858   1.483       .  S
O1243     Cu1251   2.035       .  S
O1243      C1253   1.283       .  A
O1244     Cu1251   2.038       .  S
O1244      C1254   1.283       .  A
O1245     Cu1251   1.981       .  S
O1245      C1255   1.273       .  A
O1246     Cu1251   1.976       .  S
O1246      C1256   1.273       .  A
O1247     Cu1252   2.035       .  S
O1247      C1256   1.283       .  A
O1248     Cu1252   2.039       .  S
O1248      C1255   1.284       .  A
O1249     Cu1252   1.982       .  S
O1249      C1254   1.273       .  A
O1250     Cu1252   1.978       .  S
O1250      C1253   1.273       .  A
Cu1251    Cu1252   2.367       .  S
C1253      C1838   1.484       .  S
C1254      C1921   1.486       .  S
C1255      C2001   1.487       .  S
C1256      C1871   1.484       .  S
O1257     Cu1265   2.029       .  S
O1257      C1267   1.282       .  A
O1258     Cu1265   2.033   1_554  S
O1258      C1268   1.282       .  A
O1259     Cu1265   1.984       .  S
O1259      C1269   1.273       .  A
O1260     Cu1265   1.979       .  S
O1260      C1270   1.274       .  A
O1261     Cu1266   2.032       .  S
O1261      C1270   1.282       .  A
O1262     Cu1266   2.035       .  S
O1262      C1269   1.283       .  A
O1263     Cu1266   1.988   1_554  S
O1263      C1268   1.275       .  A
O1264     Cu1266   1.985       .  S
O1264      C1267   1.274       .  A
Cu1265    Cu1266   2.368       .  S
C1267      C1808   1.484       .  S
C1268      C1818   1.487       .  S
C1269      C1968   1.486       .  S
C1270      C1831   1.481       .  S
O1271     Cu1279   2.030       .  S
O1271      C1281   1.282       .  A
O1272     Cu1279   2.031   1_554  S
O1272      C1282   1.282       .  A
O1273     Cu1279   1.986       .  S
O1273      C1283   1.274       .  A
O1274     Cu1279   1.989       .  S
O1274      C1284   1.275       .  A
O1275     Cu1280   2.021       .  S
O1275      C1284   1.281       .  A
O1276     Cu1280   2.032       .  S
O1276      C1283   1.282       .  A
O1277     Cu1280   1.987   1_554  S
O1277      C1282   1.274       .  A
O1278     Cu1280   1.981       .  S
O1278      C1281   1.273       .  A
Cu1279    Cu1280   2.370       .  S
C1281      C1781   1.478       .  S
C1282      C1798   1.479       .  S
C1283      C1788   1.484       .  S
C1284      C1828   1.483       .  S
O1285     Cu1293   2.032       .  S
O1285      C1295   1.282       .  A
O1286     Cu1293   2.032       .  S
O1286      C1296   1.282       .  A
O1287     Cu1293   1.981       .  S
O1287      C1297   1.273       .  A
O1288     Cu1293   1.979       .  S
O1288      C1298   1.273       .  A
O1289     Cu1294   2.044       .  S
O1289      C1298   1.284       .  A
O1290     Cu1294   2.032       .  S
O1290      C1297   1.283       .  A
O1291     Cu1294   1.984       .  S
O1291      C1296   1.274       .  A
O1292     Cu1294   1.989       .  S
O1292      C1295   1.274       .  A
Cu1293    Cu1294   2.369       .  S
C1295      C1821   1.481       .  S
C1296      C1748   1.480       .  S
C1297      C1768   1.484       .  S
C1298      C1758   1.488       .  S
O1299     Cu1307   2.036       .  S
O1299      C1309   1.283       .  A
O1300     Cu1307   2.039       .  S
O1300      C1310   1.284       .  A
O1301     Cu1307   1.980       .  S
O1301      C1311   1.274       .  A
O1302     Cu1307   1.980       .  S
O1302      C1312   1.273       .  A
O1303     Cu1308   2.034       .  S
O1303      C1312   1.283       .  A
O1304     Cu1308   2.038       .  S
O1304      C1311   1.283       .  A
O1305     Cu1308   1.981       .  S
O1305      C1310   1.273       .  A
O1306     Cu1308   1.974       .  S
O1306      C1309   1.272       .  A
Cu1307    Cu1308   2.368       .  S
C1309      C1771   1.479       .  S
C1310      C2068   1.487       .  S
C1311      C1801   1.486       .  S
C1312      C1738   1.484       .  S
O1313     Cu1321   1.989       .  S
O1313      C1323   1.274       .  A
O1314     Cu1321   1.980       .  S
O1314      C2412   1.273       .  A
O1315     Cu1321   2.021       .  S
O1315      C1325   1.281       .  A
O1316     Cu1321   2.034       .  S
O1316      C2414   1.282       .  A
O1317     Cu1322   1.982       .  S
O1317      C1326   1.274       .  A
O1318     Cu2410   1.987       .  S
O1318      C1325   1.274       .  A
O1319     Cu1322   2.032       .  S
O1319      C1324   1.283       .  A
O1320     Cu1322   2.036       .  S
Cu1321    Cu2410   2.370       .  S
C1323      O2408   1.283       .  A
C1323      C1718   1.481       .  S
C1324      C2141   1.479       .  S
C1325      C1728   1.482       .  S
C1326      C1861   1.483       .  S
O1327     Cu1335   1.973       .  S
O1327      C1337   1.273       .  A
O1328     Cu1335   1.980       .  S
O1328      C1338   1.273       .  A
O1329     Cu1335   2.033       .  S
O1329      C1339   1.282       .  A
O1330     Cu1335   2.032       .  S
O1330      C1340   1.283       .  A
O1331     Cu1336   1.985       .  S
O1331      C1340   1.274       .  A
O1332     Cu1336   1.986       .  S
O1332      C1339   1.274       .  A
O1333     Cu1336   2.039       .  S
O1333      C1338   1.284       .  A
O1334     Cu1336   2.035       .  S
O1334      C1337   1.282       .  A
Cu1335    Cu1336   2.367       .  S
C1337      C1731   1.481       .  S
C1338      C1698   1.486       .  S
C1339      C1708   1.486       .  S
C1340      C2111   1.486       .  S
O1341     Cu1349   1.988       .  S
O1341      C1351   1.275       .  A
O1342     Cu1349   1.984   1_554  S
O1342      C1352   1.274       .  A
O1343     Cu1349   2.033       .  S
O1343      C1353   1.282       .  A
O1344     Cu1349   2.036       .  S
O1344      C1354   1.283       .  A
O1345     Cu1350   1.982       .  S
O1345      C1354   1.273       .  A
O1346     Cu1350   1.975       .  S
O1346      C1353   1.273       .  A
O1347     Cu1350   2.032   1_554  S
O1347      C1352   1.282       .  A
O1348     Cu1350   2.036       .  S
O1348      C1351   1.283       .  A
Cu1349    Cu1350   2.367       .  S
C1351      C1721   1.488       .  S
C1352      C2081   1.485       .  S
C1353      C1688   1.483       .  S
C1354      C1678   1.486       .  S
O1355     Cu1363   1.984   1_554  S
O1355      C2453   1.274       .  A
O1356     Cu1363   1.987       .  S
O1356      C1366   1.274       .  A
O1357     Cu1363   2.032       .  S
O1357      C2455   1.283       .  A
O1358     Cu1363   2.023       .  S
O1358      C1368   1.281       .  A
O1359     Cu2452   1.985       .  S
O1359      C1368   1.274       .  A
O1360     Cu1364   1.982       .  S
O1360      C1367   1.274       .  A
O1361     Cu1364   2.030       .  S
O1362     Cu1364   2.026   1_554  S
O1362      C1365   1.282       .  A
Cu1363    Cu2452   2.370       .  S
C1365      C2058   1.477       .  S
C1366      O2449   1.282       .  A
C1366      C1711   1.480       .  S
C1367      C1791   1.483       .  S
C1368      C1691   1.480       .  S
O1369     Cu1377   2.033       .  S
O1369      C1379   1.283       .  A
O1371     Cu1377   1.982       .  S
O1371      C1381   1.274       .  A
O1373     Cu1378   2.032       .  S
O1373      C1382   1.283       .  A
O1374     Cu1378   2.032       .  S
O1374      C1381   1.282       .  A
O1375     Cu1378   1.989       .  S
O1375      C1380   1.275       .  A
O1376     Cu1378   1.986       .  S
O1376      C1379   1.274       .  A
Cu1377     O2458   2.023       .  S
Cu1377     O2460   1.988       .  S
Cu1377    Cu1378   2.370       .  S
C1379      C2031   1.485       .  S
C1380      O2458   1.281       .  A
C1380      C1668   1.483       .  S
C1381      C1811   1.480       .  S
C1382      O2460   1.274       .  A
C1382      C1658   1.480       .  S
O1383     Cu1391   2.042       .  S
O1383      C1393   1.284       .  A
O1384     Cu2479   2.037       .  S
O1384      C2482   1.283       .  A
O1385     Cu1391   1.979       .  S
O1385      C1395   1.273       .  A
O1386     Cu1391   1.983       .  S
O1386      C1396   1.274       .  A
O1387     Cu1392   2.038       .  S
O1387      C1396   1.283       .  A
O1388     Cu1392   2.035       .  S
O1388      C1395   1.283       .  A
O1389     Cu1392   1.972       .  S
O1389      C1394   1.272       .  A
O1390     Cu1392   1.978       .  S
O1390      C1393   1.272       .  A
Cu1391    Cu1392   2.367       .  S
C1393      C1701   1.487       .  S
C1394      C1671   1.482       .  S
C1395      C1778   1.484       .  S
C1396      C1651   1.487       .  S
O1397     Cu1405   2.035       .  S
O1397      C1407   1.282       .  A
O1398     Cu1405   2.031       .  S
O1398      C1408   1.283       .  A
O1399     Cu1405   1.974       .  S
O1399      C1409   1.273       .  A
O1400     Cu1405   1.981       .  S
O1400      C1410   1.273       .  A
O1401     Cu1406   2.036       .  S
O1401      C1410   1.283       .  A
O1402     Cu2494   2.031       .  S
O1402      C2497   1.282       .  A
O1403     Cu1406   1.983       .  S
O1403      C1408   1.273       .  A
O1404     Cu2494   1.985       .  S
O1404      C2495   1.274       .  A
Cu1405    Cu1406   2.368       .  S
C1407      C1661   1.486       .  S
C1408      C1751   1.485       .  S
C1410      C1628   1.486       .  S
O1411     Cu1419   2.037       .  S
O1411      C1421   1.283       .  A
O1412     Cu1419   2.035       .  S
O1412      C1422   1.283       .  A
O1413     Cu1419   1.981       .  S
O1413      C1423   1.273       .  A
O1414     Cu1419   1.981       .  S
O1414      C1424   1.273       .  A
O1415     Cu1420   2.034       .  S
O1415      C1424   1.283       .  A
O1417     Cu1420   1.980       .  S
O1417      C1422   1.273       .  A
O1418     Cu1420   1.985       .  S
O1418      C1421   1.274       .  A
Cu1419    Cu1420   2.369       .  S
Cu1420     O2504   2.026       .  S
C1421      C1648   1.480       .  S
C1422      C1741   1.481       .  S
C1423      O2504   1.282       .  A
C1423      C1638   1.482       .  S
C1424      C2121   1.485       .  S
O1425     Cu1433   1.977       .  S
O1425      C1435   1.273       .  A
O1426     Cu1433   1.979       .  S
O1426      C1436   1.273       .  A
O1427     Cu1433   2.035       .  S
O1427      C1437   1.283       .  A
O1428     Cu1433   2.032       .  S
O1428      C1438   1.282       .  A
O1429     Cu1434   1.982       .  S
O1429      C1438   1.274       .  A
O1430     Cu1434   1.983       .  S
O1430      C1437   1.273       .  A
O1431     Cu1434   2.039       .  S
O1431      C1436   1.284       .  A
O1432     Cu1434   2.035       .  S
O1432      C1435   1.283       .  A
Cu1433    Cu1434   2.368       .  S
C1435      C1618   1.480       .  S
C1436      C1631   1.486       .  S
C1437      C1611   1.484       .  S
C1438      C2021   1.484       .  S
O1439     Cu1447   1.984       .  S
O1439      C1449   1.274       .  A
O1440     Cu1447   1.984       .  S
O1441     Cu1447   2.036       .  S
O1441      C1451   1.283       .  A
O1442     Cu1447   2.036       .  S
O1442      C1452   1.283       .  A
O1443     Cu1448   1.984       .  S
O1443      C2540   1.273       .  A
O1444      C1451   1.273       .  A
O1445     Cu1448   2.030       .  S
O1445      C1450   1.282       .  A
O1446      C1449   1.283       .  A
Cu1448     O2532   1.980       .  S
Cu1448     O2534   2.038       .  S
Cu1448    Cu2535   2.369       .  S
C1449      C1908   1.487       .  S
C1450      O2528   1.273       .  A
C1450      C1621   1.484       .  S
C1451      C1991   1.480       .  S
O1453     Cu1461   1.981       .  S
O1453      C2551   1.273       .  A
O1454     Cu1461   1.983       .  S
O1454      C1464   1.273       .  A
O1455     Cu1461   2.037       .  S
O1455      C2553   1.284       .  A
O1456     Cu1461   2.030       .  S
O1456      C1466   1.282       .  A
O1457     Cu1462   1.984       .  S
O1458     Cu1462   1.985       .  S
O1458      C1465   1.273       .  A
O1459     Cu1462   2.035       .  S
O1460     Cu1462   2.033       .  S
O1460      C1463   1.283       .  A
Cu1461    Cu2550   2.368       .  S
C1463      C1961   1.479       .  S
C1464      O2547   1.283       .  A
C1464      C1608   1.485       .  S
C1465      C1761   1.487       .  S
C1466      O2545   1.274       .  A
C1466      C1591   1.484       .  S
O1467     Cu1475   1.981       .  S
O1467      C1477   1.274       .  A
O1468     Cu1475   1.984       .  S
O1468      C1478   1.274       .  A
O1469     Cu1475   2.039       .  S
O1469      C1479   1.283       .  A
O1470     Cu1475   2.037       .  S
O1470      C1480   1.283       .  A
O1471     Cu1476   1.976       .  S
O1471      C1480   1.272       .  A
O1472     Cu1476   1.980       .  S
O1472      C1479   1.273       .  A
O1473     Cu1476   2.033       .  S
O1473      C1478   1.282       .  A
O1474     Cu1476   2.030       .  S
O1474      C1477   1.282       .  A
Cu1475    Cu1476   2.368       .  S
C1477      C1588   1.482       .  S
C1478      C1581   1.484       .  S
C1479      C1598   1.486       .  S
C1480      C1941   1.485       .  S
O1481     Cu1489   2.039       .  S
O1481      C1491   1.284       .  A
O1482     Cu1489   2.028       .  S
O1482      C1492   1.282       .  A
O1483     Cu1489   1.986       .  S
O1483      C1493   1.274       .  A
O1484     Cu1489   1.989   1_554  S
O1484      C1494   1.274       .  A
O1485     Cu1490   2.035   1_554  S
O1485      C1494   1.283       .  A
O1486     Cu1490   2.029       .  S
O1486      C1493   1.282       .  A
O1487     Cu1490   1.983       .  S
O1487      C1492   1.274       .  A
O1488     Cu1490   1.980       .  S
O1488      C1491   1.273       .  A
Cu1489    Cu1490   2.370       .  S
C1491      C1681   1.486       .  S
C1492      C1568   1.479       .  S
C1493      C1848   1.480       .  S
C1494      C1558   1.481       .  S
O1495     Cu1503   2.029       .  S
O1495      C1505   1.282       .  A
O1496     Cu1503   2.038       .  S
O1497     Cu1503   1.984   1_554  S
O1497      C1507   1.273       .  A
O1498     Cu1503   1.977       .  S
O1499     Cu1504   2.035       .  S
O1499      C1508   1.282       .  A
O1500     Cu1504   2.036   1_554  S
O1500      C2595   1.283       .  A
O1501     Cu1504   1.987       .  S
O1501      C1506   1.274       .  A
O1502     Cu1504   1.983       .  S
O1502      C2593   1.274       .  A
Cu1504    Cu2591   2.368       .  S
C1505      C1571   1.484       .  S
C1506      O2584   1.283       .  A
C1506      C1951   1.486       .  S
C1507      C1548   1.485       .  S
C1508      O2586   1.273       .  A
C1508      C1841   1.480       .  S
O1509     Cu1517   2.034       .  S
O1509      C1519   1.282       .  A
O1511     Cu1517   1.982       .  S
O1511      C1521   1.273       .  A
O1513     Cu1518   2.031       .  S
O1513      C1522   1.282       .  A
O1514     Cu1518   2.029       .  S
O1514      C1521   1.282       .  A
O1515     Cu1518   1.983       .  S
O1515      C1520   1.274       .  A
O1516     Cu1518   1.986       .  S
O1516      C1519   1.274       .  A
Cu1517     O2598   2.025       .  S
Cu1517     O2600   1.988       .  S
Cu1517    Cu1518   2.369       .  S
C1519      C2088   1.485       .  S
C1520      O2598   1.282       .  A
C1520      C1538   1.481       .  S
C1521      C1881   1.477       .  S
C1522      O2600   1.274       .  A
C1522      C1561   1.486       .  S
O1523     Cu1531   2.028       .  S
O1523      C1533   1.282       .  A
O1524     Cu1531   2.033       .  S
O1524      C1534   1.282       .  A
O1525     Cu1531   1.983       .  S
O1525      C1535   1.273       .  A
O1526     Cu1531   1.978       .  S
O1526      C1536   1.273       .  A
O1527     Cu1532   2.035       .  S
O1527      C1536   1.283       .  A
O1528     Cu1532   2.036       .  S
O1528      C1535   1.283       .  A
O1529     Cu1532   1.985       .  S
O1529      C1534   1.274       .  A
O1530     Cu1532   1.980       .  S
O1530      C1533   1.274       .  A
Cu1531    Cu1532   2.368       .  S
C1533      C1541   1.481       .  S
C1534      C1578   1.484       .  S
C1535      C1551   1.485       .  S
C1536      C1898   1.484       .  S
C1537      C1538   1.409       .  A
C1537      C1542   1.397       .  A
C1537      H1544   1.082       .  S
C1538      C2627   1.404       .  A
C1539      C1540   1.396       .  A
C1539      F1546   1.357       .  S
C1540      C1541   1.409       .  A
C1540      H1545   1.082       .  S
C1542      C2629   1.405       .  A
C1542      F1543   1.357       .  S
C1547      C1548   1.402       .  A
C1547      C1552   1.399       .  A
C1548      C1549   1.413       .  A
C1549      C1550   1.399       .  A
C1549      F1556   1.358       .  S
C1550      C1551   1.402       .  A
C1550      H1555   1.083       .  S
C1551      C1552   1.414       .  A
F1553      C2640   1.357       .  S
H1554      C2635   1.083       .  S
C1557      C2646   1.407       .  A
C1557      C1562   1.399       .  A
C1557      H1564   1.083       .  S
C1558      C1559   1.403       .  A
C1559      C1560   1.400       .  A
C1559      F1566   1.357       .  S
C1560      H1565   1.083       .  S
C1561      C2648   1.411       .  A
C1561      C1562   1.406       .  A
C1562      F1563   1.357       .  S
C1567      C2656   1.401       .  A
C1567      C1572   1.397       .  A
C1567      H1574   1.083       .  S
C1568      C1569   1.411       .  A
C1569      C1570   1.398       .  A
C1569      F1576   1.358       .  S
C1570      C1571   1.403       .  A
C1570      H1575   1.083       .  S
C1572      C2659   1.413       .  A
C1572      F1573   1.357       .  S
C1577      C1578   1.410       .  A
C1577      C1582   1.399       .  A
C1577      H1584   1.083       .  S
C1578      C1579   1.405       .  A
C1579      C1580   1.398       .  A
C1579      F1586   1.357       .  S
C1580      C1581   1.409       .  A
C1580      H1585   1.083       .  S
C1581      C1582   1.405       .  A
C1582      F1583   1.357       .  S
C1587      C1588   1.409       .  A
C1587      C1592   1.397       .  A
C1587      H1594   1.082       .  S
C1588      C2677   1.404       .  A
C1589      C1590   1.398       .  A
C1589      F1596   1.357       .  S
C1590      H1595   1.082       .  S
C1591      C2678   1.410       .  A
C1591      C1592   1.405       .  A
C1592      F1593   1.357       .  S
C1597      C1598   1.403       .  A
C1597      C1602   1.399       .  A
C1597      H1604   1.083       .  S
C1598      C2687   1.414       .  A
C1599      C1600   1.398       .  A
C1599      F1606   1.358       .  S
C1600      H1605   1.083       .  S
C1601      C2540   1.484       .  S
C1601      C2688   1.401       .  A
C1601      C1602   1.413       .  A
C1602      F1603   1.358       .  S
C1607      H1614   1.083       .  S
C1608      C2695   1.402       .  A
C1608      C1609   1.413       .  A
C1609      C1610   1.398       .  A
C1609      F1616   1.357       .  S
C1610      C1611   1.402       .  A
C1610      H1615   1.083       .  S
C1611      C1612   1.413       .  A
C1612      C2695   1.399       .  A
C1612      F2701   1.358       .  S
C1617      C1618   1.401       .  A
C1617      C1622   1.399       .  A
C1617      H2712   1.083       .  S
C1618      C1619   1.411       .  A
C1619      C1620   1.397       .  A
C1619      F1626   1.357       .  S
C1620      C1621   1.402       .  A
C1620      H1625   1.083       .  S
C1621      C1622   1.414       .  A
C1622      F2711   1.357       .  S
C1627      C1628   1.402       .  A
C1627      C1632   1.398       .  A
C1627      H1634   1.083       .  S
C1628      C1629   1.414       .  A
C1629      C1630   1.399       .  A
C1629      F1636   1.358       .  S
C1630      C1631   1.402       .  A
C1630      H1635   1.083       .  S
C1631      C1632   1.415       .  A
C1632      F1633   1.358       .  S
C1637      C1642   1.396       .  A
C1637      H1644   1.083       .  S
C1638      C2725   1.402       .  A
C1638      C1639   1.413       .  A
C1639      C1640   1.397       .  A
C1639      F1646   1.357       .  S
C1640      C1641   1.400       .  A
C1640      H1645   1.083       .  S
C1641      C2497   1.478       .  S
C1641      C2730   1.411       .  A
C1642      F1643   1.357       .  S
C1647      C1652   1.400       .  A
C1647      H1654   1.083       .  S
C1648      C2735   1.408       .  A
C1648      C1649   1.403       .  A
C1649      C1650   1.399       .  A
C1649      F1656   1.357       .  S
C1650      C2739   1.411       .  A
C1650      H1655   1.083       .  S
C1651      C1652   1.406       .  A
C1652      F1653   1.357       .  S
C1657      C1662   1.400       .  A
C1657      H1664   1.083       .  S
C1658      C2745   1.408       .  A
C1658      C1659   1.402       .  A
C1659      C1660   1.398       .  A
C1659      F1666   1.357       .  S
C1660      C2749   1.411       .  A
C1660      H1665   1.083       .  S
C1661      C1662   1.407       .  A
C1662      F1663   1.357       .  S
C1667      C1668   1.410       .  A
C1667      C1672   1.399       .  A
C1667      H1674   1.082       .  S
C1668      C2757   1.405       .  A
C1669      C1670   1.395       .  A
C1669      F1676   1.357       .  S
C1670      C1671   1.409       .  A
C1670      H1675   1.082       .  S
C1672      C2759   1.404       .  A
C1672      F1673   1.357       .  S
C1677      C1678   1.402       .  A
C1677      C1682   1.398   1_565  A
C1677      H1684   1.083       .  S
C1678      C1679   1.414       .  A
C1679      C1680   1.399   1_565  A
C1679      F1686   1.358       .  S
C1680      C1681   1.402       .  A
C1680      H1685   1.083       .  S
C1681      C1682   1.414       .  A
C1682      F1683   1.358   1_556  S
C1687      C1688   1.410       .  A
C1687      C1692   1.395       .  A
C1687      H1694   1.082       .  S
C1688      C1689   1.405       .  A
C1689      C1690   1.398       .  A
C1689      F2784   1.357       .  S
C1690      C1691   1.409       .  A
C1690      H2783   1.083       .  S
C1691      C1692   1.404       .  A
C1692      F1693   1.357       .  S
C1697      C1698   1.402       .  A
C1697      C1702   1.398       .  A
C1697      H1704   1.083       .  S
C1698      C1699   1.415       .  A
C1699      C1700   1.399       .  A
C1699      F1706   1.358       .  S
C1700      C1701   1.402       .  A
C1700      H1705   1.083       .  S
C1701      C1702   1.415       .  A
C1702      F1703   1.358       .  S
C1707      C1708   1.411       .  A
C1707      C1712   1.398       .  A
C1707      H1714   1.083       .  S
C1708      C1709   1.407       .  A
C1709      C1710   1.399       .  A
C1709      F1716   1.357       .  S
C1710      C1711   1.408       .  A
C1710      H1715   1.083       .  S
C1711      C1712   1.403       .  A
C1712      F2801   1.357       .  S
C1717      C1718   1.408       .  A
C1717      C1722   1.400       .  A
C1717      H1724   1.083       .  S
C1718      C1719   1.403       .  A
C1719      C1720   1.399       .  A
C1719      F2814   1.357       .  S
C1720      C1721   1.411       .  A
C1720      H1725   1.083       .  S
C1721      C1722   1.407       .  A
C1722      F1723   1.357       .  S
C1727      C1728   1.410       .  A
C1727      C1732   1.399       .  A
C1727      H1734   1.082       .  S
C1728      C1729   1.404       .  A
C1729      C1730   1.394       .  A
C1729      F1736   1.357       .  S
C1730      C1731   1.409       .  A
C1730      H1735   1.082       .  S
C1731      C1732   1.405       .  A
C1732      F1733   1.357       .  S
C1737      C1738   1.401       .  A
C1737      C1742   1.397       .  A
C1737      H1744   1.082       .  S
C1738      C1739   1.414       .  A
C1739      C1740   1.399       .  A
C1739      F1746   1.357       .  S
C1740      C1741   1.400       .  A
C1740      H1745   1.083       .  S
C1741      C1742   1.411       .  A
C1742      F1743   1.357       .  S
C1747      C1748   1.401       .  A
C1747      C1752   1.398       .  A
C1747      H1754   1.083       .  S
C1748      C1749   1.411       .  A
C1749      C1750   1.398       .  A
C1749      F1756   1.357       .  S
C1750      C1751   1.403       .  A
C1750      H1755   1.083       .  S
C1751      C1752   1.414       .  A
C1752      F1753   1.357       .  S
C1757      C1758   1.403       .  A
C1757      C1762   1.400       .  A
C1757      H1764   1.083       .  S
C1758      C1759   1.415       .  A
C1759      C1760   1.398       .  A
C1759      F1766   1.358       .  S
C1760      C1761   1.402       .  A
C1761      C1762   1.415       .  A
C1762      F1763   1.358       .  S
H1765      C2848   1.083       .  S
C1767      C1768   1.402       .  A
C1767      C1772   1.397       .  A
C1767      H1774   1.083       .  S
C1768      C1769   1.415       .  A
C1769      C1770   1.398       .  A
C1769      F1776   1.357       .  S
C1770      C1771   1.400       .  A
C1770      H1775   1.083       .  S
C1771      C1772   1.412       .  A
C1772      F1773   1.358       .  S
C1777      C1778   1.402       .  A
C1777      C1782   1.398       .  A
C1777      H1784   1.083       .  S
C1778      C1779   1.414       .  A
C1779      C1780   1.397       .  A
C1779      F1786   1.357       .  S
C1780      C1781   1.400       .  A
C1780      H1785   1.083       .  S
C1781      C1782   1.411       .  A
C1782      F1783   1.357       .  S
C1787      C1788   1.409   1_554  A
C1787      C1792   1.399       .  A
C1787      H1794   1.083       .  S
C1788      C1789   1.405       .  A
C1789      C1790   1.398       .  A
C1789      F1796   1.357       .  S
C1790      C1791   1.409       .  A
C1790      H1795   1.083       .  S
C1791      C1792   1.405   1_556  A
F1793      C2880   1.357   1_554  S
C1797      C1798   1.408       .  A
C1797      C1802   1.400       .  A
C1797      H1804   1.083       .  S
C1798      C1799   1.402       .  A
C1799      C1800   1.397       .  A
C1799      F1806   1.357       .  S
C1800      C1801   1.411       .  A
C1800      H1805   1.083       .  S
C1801      C1802   1.406       .  A
C1802      F1803   1.357       .  S
C1807      C1808   1.410       .  A
C1807      C1812   1.398       .  A
C1807      H1814   1.083       .  S
C1808      C1809   1.406       .  A
C1809      C1810   1.397       .  A
C1809      F1816   1.357       .  S
C1810      C1811   1.408       .  A
C1810      H1815   1.083       .  S
C1811      C1812   1.404       .  A
C1812      F1813   1.357       .  S
C1817      C1818   1.410       .  A
C1817      C1822   1.398       .  A
C1817      H1824   1.083       .  S
C1818      C1819   1.407       .  A
C1819      C1820   1.400       .  A
C1819      F1826   1.357       .  S
C1820      C1821   1.408       .  A
C1820      H1825   1.083       .  S
C1821      C1822   1.403       .  A
C1822      F1823   1.357       .  S
C1827      C1828   1.410       .  A
C1827      C1832   1.399       .  A
C1827      H1834   1.083       .  S
C1828      C1829   1.406       .  A
C1829      C1830   1.395       .  A
C1829      F1836   1.357       .  S
C1830      C1831   1.408       .  A
C1830      H1835   1.083       .  S
C1831      C1832   1.405       .  A
C1832      F1833   1.357       .  S
C1837      C1838   1.411       .  A
C1837      C1842   1.398       .  A
C1837      H1844   1.082       .  S
C1838      C1839   1.405       .  A
C1839      C1840   1.397       .  A
C1839      F2934   1.357       .  S
C1840      C1841   1.408       .  A
C1840      H2933   1.083       .  S
C1841      C1842   1.403       .  A
C1842      F1843   1.357       .  S
C1847      C1848   1.400       .  A
C1847      C1852   1.397       .  A
C1847      H1854   1.083       .  S
C1848      C1849   1.411       .  A
C1849      C1850   1.399       .  A
C1849      F1856   1.357       .  S
C1850      C1851   1.403       .  A
C1850      H1855   1.082       .  S
C1851      C1852   1.414       .  A
C1852      F1853   1.357       .  S
C1857      C1858   1.410       .  A
C1857      C1862   1.399   1_545  A
C1857      H1864   1.083       .  S
C1858      C1859   1.405       .  A
C1859      C1860   1.397   1_545  A
C1859      F1866   1.357       .  S
C1860      C1861   1.409       .  A
C1860      H1865   1.083       .  S
C1861      C1862   1.405       .  A
F1863      C2950   1.357       .  S
C1867      C1868   1.409       .  A
C1867      C1872   1.399       .  A
C1867      H1874   1.083       .  S
C1868      C1869   1.404       .  A
C1869      C1870   1.396       .  A
C1869      F1876   1.357       .  S
C1870      C1871   1.410       .  A
C1870      H1875   1.083       .  S
C1871      C1872   1.405       .  A
C1872      F1873   1.357       .  S
C1877      C1878   1.403       .  A
C1877      C1882   1.398       .  A
C1877      H1884   1.083       .  S
C1878      C1879   1.415       .  A
C1879      C1880   1.397       .  A
C1879      F1886   1.357       .  S
C1880      C1881   1.400       .  A
C1880      H1885   1.083       .  S
C1881      C1882   1.410       .  A
C1882      F1883   1.357       .  S
C1887      C1888   1.411       .  A
C1887      C1892   1.398       .  A
C1887      H1894   1.083       .  S
C1888      C1889   1.406       .  A
C1889      C1890   1.399       .  A
C1889      F1896   1.357       .  S
C1890      C1891   1.408       .  A
C1890      H1895   1.083       .  S
C1891      C1892   1.402       .  A
C1892      F1893   1.357       .  S
C1897      C1898   1.410       .  A
C1897      C1902   1.397       .  A
C1897      H1904   1.082       .  S
C1898      C1899   1.405       .  A
C1899      C1900   1.398       .  A
C1899      F1906   1.357       .  S
C1900      C1901   1.409       .  A
C1900      H1905   1.082       .  S
C1901      C1902   1.403       .  A
C1902      F1903   1.357       .  S
C1907      C1908   1.410       .  A
C1907      C1912   1.399       .  A
C1907      H1914   1.083       .  S
C1908      C1909   1.405       .  A
C1909      C1910   1.399       .  A
C1909      F1916   1.357       .  S
C1910      C1911   1.410       .  A
C1910      H1915   1.083       .  S
C1911      C1912   1.406       .  A
C1912      F1913   1.357       .  S
C1917      C1918   1.401       .  A
C1917      C1922   1.398       .  A
C1917      H1924   1.083       .  S
C1918      C1919   1.412       .  A
C1919      C1920   1.399       .  A
C1919      F1926   1.358       .  S
C1920      C1921   1.403       .  A
C1920      H1925   1.083       .  S
C1921      C1922   1.414       .  A
C1922      F1923   1.358       .  S
C1927      C1928   1.410       .  A
C1927      C1932   1.396       .  A
C1927      H1934   1.082       .  S
C1928      C1929   1.405       .  A
C1929      C1930   1.398       .  A
C1929      F1936   1.357       .  S
C1930      C1931   1.409       .  A
C1930      H1935   1.082       .  S
C1931      C1932   1.404       .  A
C1932      F1933   1.357       .  S
C1937      C1938   1.400       .  A
C1937      C1942   1.397       .  A
C1937      H1944   1.083       .  S
C1938      C1939   1.411       .  A
C1939      C1940   1.398       .  A
C1939      F1946   1.357       .  S
C1940      C1941   1.402       .  A
C1940      H1945   1.083       .  S
C1941      C1942   1.415       .  A
C1942      F1943   1.357       .  S
C1947      C1948   1.410       .  A
C1947      C1952   1.399       .  A
C1947      H1954   1.083       .  S
C1948      C1949   1.406       .  A
C1949      C1950   1.400       .  A
C1949      F1956   1.357   1_556  S
C1950      C1951   1.410       .  A
C1950      H1955   1.083   1_556  S
C1951      C1952   1.406       .  A
C1952      F3041   1.357       .  S
C1957      C1958   1.402       .  A
C1957      C1962   1.398       .  A
C1958      C1959   1.414       .  A
C1959      C1960   1.397       .  A
C1959      F1966   1.356       .  S
C1960      C1961   1.399       .  A
C1960      H1965   1.083       .  S
C1961      C1962   1.411       .  A
F1963      C3050   1.356       .  S
H1964      C3045   1.082       .  S
C1967      C1968   1.402       .  A
C1967      C1972   1.398       .  A
C1967      H1974   1.083       .  S
C1968      C1969   1.414       .  A
C1969      C3058   1.399       .  A
C1969      F1976   1.358   1_556  S
C1970      C1971   1.403       .  A
C1970      H1975   1.083   1_556  S
C1972      C3059   1.414       .  A
C1972      F1973   1.358       .  S
C1977      C1978   1.410       .  A
C1977      C1982   1.400       .  A
C1977      H1984   1.082       .  S
C1978      C1979   1.405       .  A
C1979      C1980   1.396       .  A
C1979      F1986   1.357       .  S
C1980      C1981   1.409       .  A
C1980      H1985   1.082       .  S
C1981      C1982   1.405       .  A
C1982      F1983   1.357       .  S
C1987      C1988   1.402       .  A
C1987      C1992   1.397       .  A
C1987      H1994   1.083       .  S
C1988      C1989   1.414       .  A
C1989      C1990   1.399       .  A
C1989      F1996   1.357       .  S
C1990      C1991   1.401       .  A
C1990      H1995   1.083       .  S
C1991      C1992   1.411       .  A
F1993      C3080   1.358       .  S
C1997      C1998   1.403       .  A
C1997      C2002   1.399       .  A
C1997      H2004   1.083       .  S
C1999      C3086   1.414       .  A
C1999      C2000   1.399       .  A
C1999      F2006   1.358       .  S
C2000      C2001   1.402       .  A
C2000      H2005   1.083       .  S
C2001      C3090   1.415       .  A
C2002      F2003   1.358       .  S
C2007      C2008   1.408       .  A
C2007      C2012   1.399       .  A
C2007      H2014   1.083       .  S
C2008      C2009   1.403       .  A
C2009      C2010   1.398       .  A
C2009      F2016   1.357       .  S
C2010      C2011   1.410       .  A
C2010      H2015   1.083       .  S
C2011      C2012   1.406       .  A
C2012      F2013   1.357       .  S
C2017      C2018   1.409       .  A
C2017      C2022   1.398       .  A
C2017      H2024   1.082       .  S
C2018      C2019   1.403       .  A
C2019      C2020   1.398       .  A
C2019      F2026   1.357       .  S
C2020      C2021   1.410       .  A
C2020      H2025   1.082       .  S
C2021      C2022   1.405       .  A
C2022      F2023   1.357       .  S
C2027      C2028   1.410       .  A
C2027      C2032   1.399       .  A
C2027      H2034   1.083       .  S
C2028      C2029   1.406       .  A
C2029      C2030   1.399       .  A
C2029      F2036   1.357       .  S
C2030      C2031   1.410       .  A
C2030      H2035   1.083       .  S
C2031      C2032   1.405       .  A
C2032      F2033   1.357       .  S
C2037      C2038   1.401       .  A
C2037      C2042   1.397       .  A
C2037      H2044   1.083       .  S
C2038      C2039   1.413       .  A
C2039      C2040   1.398       .  A
C2039      F2046   1.358       .  S
C2040      C2041   1.402       .  A
C2040      H2045   1.083       .  S
C2041      C2042   1.415       .  A
C2042      F2043   1.358       .  S
C2047      C2048   1.401       .  A
C2047      C2052   1.399       .  A
C2047      H2054   1.083       .  S
C2048      C2049   1.411       .  A
C2049      C2050   1.396       .  A
C2049      F2056   1.357       .  S
C2050      C2051   1.402       .  A
C2050      H2055   1.083       .  S
C2051      C2052   1.414       .  A
C2052      F2053   1.357       .  S
C2057      C3146   1.408       .  A
C2057      C3150   1.398       .  A
C2057      H2064   1.083       .  S
C2058      C2059   1.403       .  A
C2059      C2060   1.396       .  A
C2059      F2066   1.357       .  S
C2060      C2061   1.410       .  A
C2060      H2065   1.082       .  S
C2061      C2062   1.406       .  A
F2063      C3150   1.357       .  S
C2067      C2068   1.402       .  A
C2067      C2072   1.399       .  A
C2067      H2074   1.083       .  S
C2068      C2069   1.414       .  A
C2069      C2070   1.398       .  A
C2069      F2076   1.358       .  S
C2070      C3159   1.402       .  A
C2070      H3163   1.083       .  S
C2072      C3159   1.414       .  A
C2072      F2073   1.358       .  S
C2077      C2078   1.408       .  A
C2077      C2082   1.397       .  A
C2077      H2084   1.083       .  S
C2078      C2079   1.404       .  A
C2079      C2080   1.399       .  A
C2079      F2086   1.357       .  S
C2080      C2081   1.411       .  A
C2080      H2085   1.083       .  S
C2081      C2082   1.406       .  A
C2082      F2083   1.357       .  S
C2087      C2088   1.410       .  A
C2087      C2092   1.399   1_545  A
C2087      H2094   1.083       .  S
C2088      C2089   1.406       .  A
C2089      C2090   1.399   1_545  A
C2089      F2096   1.357       .  S
C2090      C2091   1.410       .  A
C2090      H2095   1.083       .  S
C2091      C2092   1.405       .  A
C2092      F2093   1.357       .  S
C2097      C2098   1.410       .  A
C2097      C2102   1.398       .  A
C2097      H2104   1.083       .  S
C2098      C2099   1.405       .  A
C2099      C2100   1.396       .  A
C2099      F2106   1.357       .  S
C2100      C2101   1.409       .  A
C2100      H2105   1.082       .  S
C2101      C2102   1.404       .  A
C2102      F2103   1.357       .  S
C2107      C2108   1.401       .  A
C2107      C2112   1.399       .  A
C2107      H2114   1.083       .  S
C2108      C2109   1.410       .  A
C2109      C2110   1.398       .  A
C2109      F2116   1.357       .  S
C2110      C2111   1.403       .  A
C2110      H2115   1.083       .  S
C2111      C2112   1.414       .  A
C2112      F2113   1.357       .  S
C2117      C2118   1.402       .  A
C2117      C2122   1.399       .  A
C2117      H2124   1.083       .  S
C2118      C2119   1.414       .  A
C2119      C2120   1.397       .  A
C2119      F2126   1.357       .  S
C2120      C2121   1.402       .  A
C2120      H2125   1.083       .  S
C2121      C2122   1.414       .  A
C2122      F2123   1.358       .  S
C2127      C2128   1.411       .  A
C2127      C2132   1.399       .  A
C2127      H2134   1.083       .  S
C2128      C2129   1.407       .  A
C2129      C2130   1.400       .  A
C2129      F2136   1.357       .  S
C2130      C2131   1.408       .  A
C2130      H2135   1.083       .  S
C2131      C2132   1.403       .  A
C2132      F2133   1.357       .  S
C2137      C2138   1.402       .  A
C2138      C2139   1.414       .  A
C2139      C2140   1.397       .  A
C2139      F2146   1.357       .  S
C2140      C2141   1.400       .  A
C2140      H2145   1.083       .  S
C2142      C3225   1.397       .  A
C2142      C3229   1.411       .  A
C2142      F2143   1.357       .  S
H2144      C3225   1.083       .  S
C2147      C2148   1.402       .  A
C2147      H2154   1.083       .  S
C2149      C3236   1.414       .  A
C2149      C2150   1.399   1_565  A
C2149      F2156   1.358       .  S
C2150      C2151   1.402       .  A
C2150      H2155   1.083       .  S
C2151      C2152   1.414       .  A
C2152      C3235   1.398   1_545  A
C2152      F2153   1.357       .  S
C2157      C2158   1.402       .  A
C2157      C2162   1.397       .  A
C2157      H2164   1.083       .  S
C2158      C2159   1.413       .  A
C2159      C2160   1.399       .  A
C2159      F2166   1.357       .  S
C2160      C2161   1.402       .  A
C2160      H2165   1.083       .  S
C2161      C2162   1.413       .  A
C2162      F2163   1.358       .  S
C2167      C2168   1.401       .  A
C2167      C2172   1.398       .  A
C2167      H2174   1.083       .  S
C2168      C2169   1.411       .  A
C2169      C2170   1.396       .  A
C2169      F2176   1.358       .  S
C2170      C2171   1.403       .  A
C2170      H2175   1.083       .  S
C2171      C2172   1.414       .  A
C2172      F2173   1.357       .  S
O2177     Cu2185   1.982       .  S
O2177      C2187   1.273       .  A
O2178     Cu2185   1.975       .  S
O2178      C2188   1.273       .  A
O2179     Cu2185   2.030       .  S
O2179      C2189   1.283       .  A
O2180     Cu2185   2.036       .  S
O2180      C2190   1.283       .  A
O2181     Cu2186   1.981       .  S
O2181      C2190   1.273       .  A
O2182     Cu2186   1.979       .  S
O2182      C2189   1.273       .  A
O2183     Cu2186   2.031       .  S
O2183      C2188   1.282       .  A
O2184     Cu2186   2.036       .  S
O2184      C2187   1.283       .  A
Cu2185    Cu2186   2.369       .  S
C2187      C3236   1.486       .  S
C2188      C3256   1.477       .  S
C2189      C3226   1.483       .  S
C2190      C3249   1.484       .  S
O2191     Cu2199   1.982       .  S
O2191      C2201   1.273       .  A
O2192     Cu2199   1.978       .  S
O2192      C2202   1.273       .  A
O2193     Cu2199   2.036       .  S
O2193      C2203   1.283       .  A
O2194     Cu2199   2.034       .  S
O2194      C2204   1.282       .  A
O2195     Cu2200   1.984       .  S
O2195      C2204   1.274       .  A
O2196     Cu2200   1.989       .  S
O2196      C2203   1.274       .  A
O2197     Cu2200   2.036       .  S
O2197      C2202   1.283       .  A
O2198     Cu2200   2.026       .  S
O2198      C2201   1.282       .  A
Cu2199    Cu2200   2.369       .  S
C2201      C3259   1.482       .  S
C2202      C3206   1.484       .  S
C2203      C3219   1.482       .  S
C2204      C3196   1.480       .  S
O2205     Cu2213   1.987       .  S
O2205      C2215   1.274       .  A
O2206     Cu2213   1.982       .  S
O2206      C2216   1.274       .  A
O2207     Cu2213   2.026       .  S
O2207      C2217   1.282       .  A
O2208     Cu2213   2.033       .  S
O2208      C2218   1.282       .  A
O2209     Cu2214   1.983       .  S
O2209      C2218   1.274       .  A
O2210     Cu2214   1.983       .  S
O2210      C2217   1.274       .  A
O2211     Cu2214   2.031       .  S
O2211      C2216   1.282       .  A
O2212     Cu2214   2.032       .  S
O2212      C2215   1.283       .  A
Cu2213    Cu2214   2.369       .  S
C2215      C3246   1.485       .  S
C2216      C3166   1.479       .  S
C2217      C3186   1.483       .  S
C2218      C3179   1.484       .  S
O2219     Cu2227   1.989       .  S
O2219      C2229   1.275       .  A
O2220     Cu2227   1.982       .  S
O2220      C2230   1.274       .  A
O2221     Cu2227   2.031       .  S
O2221      C2231   1.282       .  A
O2222     Cu2227   2.035       .  S
O2222      C2232   1.283       .  A
O2223     Cu2228   1.983       .  S
O2223      C2232   1.273       .  A
O2224     Cu2228   1.979       .  S
O2224      C2231   1.274       .  A
O2225     Cu2228   2.030       .  S
O2225      C2230   1.282       .  A
O2226     Cu2228   2.036       .  S
O2226      C2229   1.283       .  A
Cu2227    Cu2228   2.368       .  S
C2229      C3216   1.488       .  S
C2230      C3149   1.483       .  S
C2231      C3189   1.481       .  S
C2232      C3159   1.486       .  S
O2233     Cu2241   1.981       .  S
O2233      C2243   1.273       .  A
O2234     Cu2241   1.977       .  S
O2234      C2244   1.273       .  A
O2235     Cu2241   2.028       .  S
O2235      C2245   1.282       .  A
O2236     Cu2241   2.036       .  S
O2236      C2246   1.283       .  A
O2237     Cu2242   1.985       .  S
O2237      C2246   1.274       .  A
O2238     Cu2242   1.984       .  S
O2238      C2245   1.273       .  A
O2239     Cu2242   2.035       .  S
O2239      C2244   1.283       .  A
O2240     Cu2242   2.035       .  S
O2240      C2243   1.283       .  A
Cu2241    Cu2242   2.369       .  S
C2243      C3126   1.483       .  S
C2244      C3106   1.480       .  S
C2245      C3139   1.484       .  S
C2246      C3116   1.486       .  S
O2247     Cu2255   1.985       .  S
O2247      C2257   1.273       .  A
O2248     Cu2255   1.985       .  S
O2248      C2258   1.274       .  A
O2249     Cu2255   2.038       .  S
O2249      C2259   1.283       .  A
O2250     Cu2255   2.036       .  S
O2250      C2260   1.283       .  A
O2251     Cu2256   1.977       .  S
O2251      C2260   1.273       .  A
O2252     Cu2256   1.983       .  S
O2252      C2259   1.273       .  A
O2253     Cu2256   2.035       .  S
O2253      C2258   1.283       .  A
O2254     Cu2256   2.032       .  S
O2254      C2257   1.283       .  A
Cu2255    Cu2256   2.367       .  S
C2257      C3076   1.486       .  S
C2258      C3099   1.486       .  S
C2259      C3086   1.487       .  S
C2260      C3136   1.480       .  S
O2261     Cu2269   1.981       .  S
O2261      C2271   1.273       .  A
O2262     Cu2269   1.977       .  S
O2262      C2272   1.273       .  A
O2263     Cu2269   2.037   1_554  S
O2263      C2273   1.283       .  A
O2264     Cu2269   2.038       .  S
O2264      C2274   1.283       .  A
O2265     Cu2270   1.979       .  S
O2265      C2274   1.273       .  A
O2266     Cu2270   1.977   1_554  S
O2266      C2273   1.272       .  A
O2267     Cu2270   2.035       .  S
O2267      C2272   1.283       .  A
O2268     Cu2270   2.038       .  S
O2268      C2271   1.283       .  A
Cu2269    Cu2270   2.367       .  S
C2271      C3059   1.486       .  S
C2272      C3069   1.484       .  S
C2273      C3046   1.485       .  S
C2274      C3129   1.485       .  S
O2275     Cu2283   1.984   1_554  S
O2275      C2285   1.274       .  A
O2276     Cu2283   1.988       .  S
O2276      C2286   1.274       .  A
O2277     Cu2283   2.038       .  S
O2277      C2287   1.283       .  A
O2278     Cu2283   2.025       .  S
O2278      C2288   1.282       .  A
O2279     Cu2284   1.991       .  S
O2279      C2288   1.275       .  A
O2280     Cu2284   1.986       .  S
O2280      C2287   1.274       .  A
O2281     Cu2284   2.031       .  S
O2281      C2286   1.282       .  A
O2282     Cu2284   2.031   1_554  S
O2282      C2285   1.282       .  A
Cu2283    Cu2284   2.370       .  S
C2285      C3026   1.479       .  S
C2286      C3096   1.480       .  S
C2287      C3036   1.486       .  S
C2288      C3066   1.484       .  S
O2289     Cu2297   2.033       .  S
O2289      C2299   1.283       .  A
O2290     Cu2297   2.031       .  S
O2290      C2300   1.282       .  A
O2291     Cu2297   1.985       .  S
O2291      C2301   1.274       .  A
O2292     Cu2297   1.986       .  S
O2292      C2302   1.274       .  A
O2293     Cu2298   2.035       .  S
O2293      C2302   1.283       .  A
O2294     Cu2298   2.025       .  S
O2294      C2301   1.282       .  A
O2295     Cu2298   1.985       .  S
O2295      C2300   1.274       .  A
O2296     Cu2298   1.990       .  S
O2296      C2299   1.274       .  A
Cu2297    Cu2298   2.369       .  S
C2299      C3006   1.485       .  S
C2300      C2989   1.481       .  S
C2301      C3019   1.482       .  S
C2302      C2999   1.486       .  S
O2303     Cu2311   2.036       .  S
O2303      C2313   1.283       .  A
O2304     Cu2311   2.032       .  S
O2304      C2314   1.282       .  A
O2305     Cu2311   1.978       .  S
O2305      C2315   1.273       .  A
O2306     Cu2311   1.982       .  S
O2306      C2316   1.274       .  A
O2307     Cu2312   2.038       .  S
O2307      C2316   1.283       .  A
O2308     Cu2312   2.036       .  S
O2308      C2315   1.283       .  A
O2309     Cu2312   1.977       .  S
O2309      C2314   1.273       .  A
O2310     Cu2312   1.983       .  S
O2310      C2313   1.273       .  A
Cu2311    Cu2312   2.367       .  S
C2313      C3239   1.486       .  S
C2314      C3016   1.482       .  S
C2315      C2966   1.485       .  S
C2316      C2976   1.487       .  S
O2317     Cu2325   2.037       .  S
O2317      C2327   1.283       .  A
O2318     Cu2325   2.035       .  S
O2318      C2328   1.283       .  A
O2319     Cu2325   1.988       .  S
O2319      C2329   1.275       .  A
O2320     Cu2325   1.988       .  S
O2320      C2330   1.274       .  A
O2321     Cu2326   2.030       .  S
O2321      C2330   1.282       .  A
O2322     Cu2326   2.025       .  S
O2322      C2329   1.281       .  A
O2323     Cu2326   1.978       .  S
O2323      C2328   1.273       .  A
O2324     Cu2326   1.983       .  S
O2324      C2327   1.273       .  A
Cu2325    Cu2326   2.369       .  S
C2327      C2979   1.479       .  S
C2328      C2939   1.485       .  S
C2329      C2956   1.481       .  S
C2330      C2946   1.484       .  S
O2331     Cu2339   2.034       .  S
O2331      C2341   1.283       .  A
O2332     Cu2339   2.038       .  S
O2332      C2342   1.283       .  A
O2333     Cu2339   1.983       .  S
O2333      C2343   1.273       .  A
O2334     Cu2339   1.980       .  S
O2334      C2344   1.274       .  A
O2335     Cu2340   2.033       .  S
O2335      C2344   1.282       .  A
O2336     Cu2340   2.036       .  S
O2336      C2343   1.283       .  A
O2337     Cu2340   1.983       .  S
O2337      C2342   1.273       .  A
O2338     Cu2340   1.977       .  S
O2338      C2341   1.273       .  A
Cu2339    Cu2340   2.367       .  S
C2341      C2926   1.483       .  S
C2342      C3009   1.486       .  S
C2343      C3089   1.486       .  S
C2344      C2959   1.484       .  S
O2345     Cu2353   2.031       .  S
O2345      C2355   1.282       .  A
O2346     Cu2353   2.034   1_554  S
O2346      C2356   1.283       .  A
O2347     Cu2353   1.982       .  S
O2347      C2357   1.273       .  A
O2348     Cu2353   1.977       .  S
O2348      C2358   1.273       .  A
O2349     Cu2354   2.032       .  S
O2349      C2358   1.282       .  A
O2350     Cu2354   2.035       .  S
O2350      C2357   1.283       .  A
O2351     Cu2354   1.986   1_554  S
O2351      C2356   1.274       .  A
O2352     Cu2354   1.984       .  S
O2352      C2355   1.274       .  A
Cu2353    Cu2354   2.368       .  S
C2355      C2896   1.484       .  S
C2356      C2906   1.487       .  S
C2357      C3056   1.486       .  S
C2358      C2919   1.480       .  S
O2359     Cu2367   2.032       .  S
O2359      C2369   1.282       .  A
O2360     Cu2367   2.033   1_554  S
O2360      C2370   1.282       .  A
O2361     Cu2367   1.984       .  S
O2361      C2371   1.274       .  A
O2362     Cu2367   1.987       .  S
O2362      C2372   1.274       .  A
O2363     Cu2368   2.021       .  S
O2363      C2372   1.281       .  A
O2364     Cu2368   2.033       .  S
O2364      C2371   1.282       .  A
O2365     Cu2368   1.989   1_554  S
O2365      C2370   1.274       .  A
O2366     Cu2368   1.983       .  S
O2366      C2369   1.273       .  A
Cu2367    Cu2368   2.370       .  S
C2369      C2869   1.480       .  S
C2370      C2886   1.480       .  S
C2371      C2876   1.484       .  S
C2372      C2916   1.482       .  S
O2373     Cu2381   2.032       .  S
O2373      C2383   1.282       .  A
O2374     Cu2381   2.032       .  S
O2374      C2384   1.282       .  A
O2375     Cu2381   1.981       .  S
O2375      C2385   1.273       .  A
O2376     Cu2381   1.980       .  S
O2376      C2386   1.273       .  A
O2377     Cu2382   2.044       .  S
O2377      C2386   1.284       .  A
O2378     Cu2382   2.031       .  S
O2378      C2385   1.283       .  A
O2379     Cu2382   1.983       .  S
O2379      C2384   1.273       .  A
O2380     Cu2382   1.988       .  S
O2380      C2383   1.274       .  A
Cu2381    Cu2382   2.369       .  S
C2383      C2909   1.480       .  S
C2384      C2836   1.479       .  S
C2385      C2856   1.483       .  S
C2386      C2846   1.488       .  S
O2387     Cu2395   2.035       .  S
O2387      C2397   1.283       .  A
O2388     Cu2395   2.038       .  S
O2388      C2398   1.283       .  A
O2389     Cu2395   1.982       .  S
O2389      C2399   1.274       .  A
O2390     Cu2395   1.982       .  S
O2390      C2400   1.273       .  A
O2391     Cu2396   2.035       .  S
O2391      C2400   1.283       .  A
O2392     Cu2396   2.040       .  S
O2392      C2399   1.283       .  A
O2393     Cu2396   1.982       .  S
O2393      C2398   1.273       .  A
O2394     Cu2396   1.975       .  S
O2394      C2397   1.272       .  A
Cu2395    Cu2396   2.368       .  S
C2397      C2859   1.478       .  S
C2398      C3156   1.487       .  S
C2399      C2889   1.487       .  S
C2400      C2826   1.486       .  S
O2401     Cu2409   1.986       .  S
O2401      C2411   1.274       .  A
O2402     Cu2409   1.979       .  S
O2403     Cu2409   2.021       .  S
O2403      C2413   1.281       .  A
O2404     Cu2409   2.033       .  S
O2405     Cu2410   1.983       .  S
O2405      C2414   1.274       .  A
O2406      C2413   1.274   1_455  A
O2407     Cu2410   2.031       .  S
O2407      C2412   1.282       .  A
O2408     Cu2410   2.034       .  S
C2411      C2806   1.481       .  S
C2412      C3229   1.479       .  S
C2413      C2816   1.482       .  S
C2414      C2949   1.484       .  S
O2415     Cu2423   1.974       .  S
O2415      C2425   1.273       .  A
O2416     Cu2423   1.980       .  S
O2416      C2426   1.273       .  A
O2417     Cu2423   2.033       .  S
O2417      C2427   1.282       .  A
O2418     Cu2423   2.032       .  S
O2418      C2428   1.283       .  A
O2419     Cu2424   1.985       .  S
O2419      C2428   1.273       .  A
O2420     Cu2424   1.986       .  S
O2420      C2427   1.274       .  A
O2421     Cu2424   2.038       .  S
O2421      C2426   1.284       .  A
O2422     Cu2424   2.035       .  S
O2422      C2425   1.282       .  A
Cu2423    Cu2424   2.367       .  S
C2425      C2819   1.482       .  S
C2426      C2786   1.486       .  S
C2427      C2796   1.486       .  S
C2428      C3199   1.486       .  S
O2429     Cu2437   1.988       .  S
O2429      C2439   1.274       .  A
O2430     Cu2437   1.983   1_554  S
O2430      C2440   1.274       .  A
O2431     Cu2437   2.032       .  S
O2431      C2441   1.282       .  A
O2432     Cu2437   2.036       .  S
O2432      C2442   1.283       .  A
O2433     Cu2438   1.983       .  S
O2433      C2442   1.273       .  A
O2434     Cu2438   1.976       .  S
O2434      C2441   1.273       .  A
O2435     Cu2438   2.031   1_554  S
O2435      C2440   1.282       .  A
O2436     Cu2438   2.035       .  S
O2436      C2439   1.283       .  A
Cu2437    Cu2438   2.367       .  S
C2439      C2809   1.487       .  S
C2440      C3169   1.484       .  S
C2441      C2776   1.482       .  S
C2442      C2766   1.486       .  S
O2443     Cu2451   1.983   1_554  S
O2444     Cu2451   1.988       .  S
O2444      C2454   1.274       .  A
O2445     Cu2451   2.030       .  S
O2446     Cu2451   2.020       .  S
O2446      C2456   1.281       .  A
O2447      C2456   1.275   1_455  A
O2448     Cu2452   1.983       .  S
O2448      C2455   1.274       .  A
O2449     Cu2452   2.030       .  S
O2450     Cu2452   2.027   1_554  S
O2450      C2453   1.282       .  A
C2453      C3146   1.480       .  S
C2454      C2799   1.479       .  S
C2455      C2879   1.484       .  S
C2456      C2779   1.480       .  S
O2457     Cu2465   2.035   1_655  S
O2457      C2467   1.283       .  A
O2459     Cu2465   1.982       .  S
O2459      C2469   1.274   1_455  A
O2461     Cu2466   2.032       .  S
O2461      C2470   1.283       .  A
O2462     Cu2466   2.032       .  S
O2462      C2469   1.282       .  A
O2463     Cu2466   1.988       .  S
O2463      C2468   1.274       .  A
O2464     Cu2466   1.985       .  S
O2464      C2467   1.274       .  A
Cu2465    Cu2466   2.370   1_455  S
C2467      C3119   1.486       .  S
C2468      C2756   1.484   1_655  S
C2469      C2899   1.479       .  S
C2470      C2746   1.480   1_655  S
O2471     Cu2479   2.040       .  S
O2471      C2481   1.284       .  A
O2473     Cu2479   1.981       .  S
O2473      C2483   1.273       .  A
O2474     Cu2479   1.984       .  S
O2474      C2484   1.274       .  A
O2475     Cu2480   2.037       .  S
O2475      C2484   1.283       .  A
O2476     Cu2480   2.035       .  S
O2476      C2483   1.283       .  A
O2477     Cu2480   1.972       .  S
O2477      C2482   1.273       .  A
O2478     Cu2480   1.980       .  S
O2478      C2481   1.272       .  A
Cu2479    Cu2480   2.367       .  S
C2481      C2789   1.487       .  S
C2482      C2759   1.481       .  S
C2483      C2866   1.485       .  S
C2484      C2739   1.487       .  S
O2485     Cu2493   2.037       .  S
O2485      C2495   1.283       .  A
O2486     Cu2493   2.032       .  S
O2486      C2496   1.283       .  A
O2487     Cu2493   1.973       .  S
O2487      C2497   1.272       .  A
O2488     Cu2493   1.979       .  S
O2488      C2498   1.273       .  A
O2489     Cu2494   2.034       .  S
O2489      C2498   1.283       .  A
O2491     Cu2494   1.982       .  S
O2491      C2496   1.273       .  A
Cu2493    Cu2494   2.368       .  S
C2495      C2749   1.487       .  S
C2496      C2839   1.485       .  S
C2498      C2716   1.484       .  S
O2499     Cu2507   2.037       .  S
O2499      C2509   1.283       .  A
O2500     Cu2507   2.036       .  S
O2500      C2510   1.283       .  A
O2501     Cu2507   1.982       .  S
O2501      C2511   1.273       .  A
O2502     Cu2507   1.980       .  S
O2502      C2512   1.273       .  A
O2503     Cu2508   2.035   1_655  S
O2503      C2512   1.283       .  A
O2505     Cu2508   1.981       .  S
O2505      C2510   1.273   1_455  A
O2506     Cu2508   1.986       .  S
O2506      C2509   1.274   1_455  A
Cu2507    Cu2508   2.369   1_655  S
C2509      C2736   1.480   1_655  S
C2510      C2829   1.481       .  S
C2511      C2726   1.482   1_655  S
C2512      C3209   1.484       .  S
O2513     Cu2521   1.976       .  S
O2513      C2523   1.273       .  A
O2514     Cu2521   1.979       .  S
O2514      C2524   1.273       .  A
O2515     Cu2521   2.036       .  S
O2515      C2525   1.283       .  A
O2516     Cu2521   2.033       .  S
O2516      C2526   1.283       .  A
O2517     Cu2522   1.978       .  S
O2517      C2526   1.273       .  A
O2518     Cu2522   1.980       .  S
O2518      C2525   1.273       .  A
O2519     Cu2522   2.037       .  S
O2519      C2524   1.283       .  A
O2520     Cu2522   2.034       .  S
O2520      C2523   1.283       .  A
Cu2521    Cu2522   2.368       .  S
C2523      C2706   1.480       .  S
C2524      C2719   1.485       .  S
C2525      C2699   1.484       .  S
C2526      C3109   1.484       .  S
O2527     Cu2535   1.984       .  S
O2527      C2537   1.274       .  A
O2528     Cu2535   1.984       .  S
O2529     Cu2535   2.036       .  S
O2529      C2539   1.283       .  A
O2530     Cu2535   2.035       .  S
O2530      C2540   1.283       .  A
O2531     Cu2536   1.985       .  S
O2532      C2539   1.273       .  A
O2533     Cu2536   2.031       .  S
O2533      C2538   1.283       .  A
O2534      C2537   1.283       .  A
C2537      C2996   1.487       .  S
C2538      C2709   1.485       .  S
C2539      C3079   1.479       .  S
O2541     Cu2549   1.979       .  S
O2542     Cu2549   1.981       .  S
O2542      C2552   1.273       .  A
O2543     Cu2549   2.036       .  S
O2544     Cu2549   2.029       .  S
O2544      C2554   1.282       .  A
O2545     Cu2550   1.983       .  S
O2546     Cu2550   1.985       .  S
O2546      C2553   1.273       .  A
O2547     Cu2550   2.036       .  S
O2548     Cu2550   2.034       .  S
O2548      C2551   1.283       .  A
C2551      C3049   1.481       .  S
C2552      C2696   1.483       .  S
C2553      C2849   1.488       .  S
C2554      C2679   1.484       .  S
O2555     Cu2563   1.982       .  S
O2555      C2565   1.274       .  A
O2556     Cu2563   1.984       .  S
O2556      C2566   1.274       .  A
O2557     Cu2563   2.039       .  S
O2557      C2567   1.283       .  A
O2558     Cu2563   2.037       .  S
O2558      C2568   1.283       .  A
O2559     Cu2564   1.978       .  S
O2559      C2568   1.273       .  A
O2560     Cu2564   1.981       .  S
O2560      C2567   1.273       .  A
O2561     Cu2564   2.032       .  S
O2561      C2566   1.282       .  A
O2562     Cu2564   2.029       .  S
O2562      C2565   1.282       .  A
Cu2563    Cu2564   2.368       .  S
C2565      C2676   1.482       .  S
C2566      C2669   1.484       .  S
C2567      C2686   1.487       .  S
C2568      C3029   1.485       .  S
O2569     Cu2577   2.040       .  S
O2569      C2579   1.284       .  A
O2570     Cu2577   2.028       .  S
O2570      C2580   1.282       .  A
O2571     Cu2577   1.984       .  S
O2571      C2581   1.273       .  A
O2572     Cu2577   1.985   1_554  S
O2572      C2582   1.274       .  A
O2573     Cu2578   2.035   1_554  S
O2573      C2582   1.282       .  A
O2574     Cu2578   2.030       .  S
O2574      C2581   1.282       .  A
O2575     Cu2578   1.982       .  S
O2575      C2580   1.274       .  A
O2576     Cu2578   1.980       .  S
O2576      C2579   1.273       .  A
Cu2577    Cu2578   2.370       .  S
C2579      C2769   1.487       .  S
C2580      C2656   1.479       .  S
C2581      C2936   1.478       .  S
C2582      C2646   1.480       .  S
O2583     Cu2591   2.028       .  S
O2583      C2593   1.282       .  A
O2584     Cu2591   2.036       .  S
O2585     Cu2591   1.986   1_554  S
O2585      C2595   1.274       .  A
O2586     Cu2591   1.979       .  S
O2587     Cu2592   2.034       .  S
O2587      C2596   1.283       .  A
O2588     Cu2592   2.036   1_554  S
O2589     Cu2592   1.986       .  S
O2589      C2594   1.274       .  A
O2590     Cu2592   1.982       .  S
C2593      C2659   1.483       .  S
C2594      C3039   1.486       .  S
C2595      C2636   1.486       .  S
C2596      C2929   1.479       .  S
O2597     Cu2605   2.034       .  S
O2597      C2607   1.283   1_455  A
O2599     Cu2605   1.983       .  S
O2599      C2609   1.273   1_455  A
O2601     Cu2606   2.033       .  S
O2601      C2610   1.283       .  A
O2602     Cu2606   2.030       .  S
O2602      C2609   1.282       .  A
O2603     Cu2606   1.981       .  S
O2603      C2608   1.274   1_655  A
O2604     Cu2606   1.984       .  S
O2604      C2607   1.274       .  A
Cu2605    Cu2606   2.368   1_455  S
C2607      C3176   1.484       .  S
C2608      C2626   1.482       .  S
C2609      C2969   1.480       .  S
C2610      C2649   1.488   1_655  S
O2611     Cu2619   2.027       .  S
O2611      C2621   1.282       .  A
O2612     Cu2619   2.032       .  S
O2612      C2622   1.282       .  A
O2613     Cu2619   1.986       .  S
O2613      C2623   1.274       .  A
O2614     Cu2619   1.981       .  S
O2614      C2624   1.274       .  A
O2615     Cu2620   2.035       .  S
O2615      C2624   1.283       .  A
O2616     Cu2620   2.037       .  S
O2616      C2623   1.283       .  A
O2617     Cu2620   1.985       .  S
O2617      C2622   1.274       .  A
O2618     Cu2620   1.980       .  S
O2618      C2621   1.274       .  A
Cu2619    Cu2620   2.368       .  S
C2621      C2629   1.481       .  S
C2622      C2666   1.484       .  S
C2623      C2639   1.487       .  S
C2624      C2986   1.485       .  S
C2625      C2626   1.409   1_655  A
C2625      C2630   1.397       .  A
C2625      H2632   1.082       .  S
C2627      C2628   1.396       .  A
C2627      F2634   1.357       .  S
C2628      C2629   1.409       .  A
C2628      H2633   1.082       .  S
C2630      F2631   1.357       .  S
C2635      C2636   1.402       .  A
C2635      C2640   1.399       .  A
C2636      C2637   1.413       .  A
C2637      C2638   1.399       .  A
C2637      F2644   1.358       .  S
C2638      C2639   1.403       .  A
C2638      H2643   1.083       .  S
C2639      C2640   1.414       .  A
C2645      C2650   1.399       .  A
C2645      H2652   1.083       .  S
C2646      C2647   1.403       .  A
C2647      C2648   1.400       .  A
C2647      F2654   1.357       .  S
C2648      H2653   1.083       .  S
C2649      C2650   1.407   1_455  A
C2650      F2651   1.357       .  S
C2655      C2660   1.397       .  A
C2655      H2662   1.083       .  S
C2656      C2657   1.411       .  A
C2657      C2658   1.397       .  A
C2657      F2664   1.358       .  S
C2658      C2659   1.403       .  A
C2658      H2663   1.083       .  S
C2660      F2661   1.357       .  S
C2665      C2666   1.410       .  A
C2665      C2670   1.399       .  A
C2665      H2672   1.083       .  S
C2666      C2667   1.406       .  A
C2667      C2668   1.398       .  A
C2667      F2674   1.357       .  S
C2668      C2669   1.409       .  A
C2668      H2673   1.083       .  S
C2669      C2670   1.405       .  A
C2670      F2671   1.357       .  S
C2675      C2676   1.409       .  A
C2675      C2680   1.398       .  A
C2675      H2682   1.082       .  S
C2677      C2678   1.397       .  A
C2677      F2684   1.357       .  S
C2678      H2683   1.082       .  S
C2679      C2680   1.405       .  A
C2680      F2681   1.357       .  S
C2685      C2686   1.403       .  A
C2685      C2690   1.399       .  A
C2685      H2692   1.083       .  S
C2687      C2688   1.398       .  A
C2687      F2694   1.358       .  S
C2688      H2693   1.083       .  S
C2689      C2690   1.413       .  A
C2690      F2691   1.358       .  S
C2695      H2702   1.083       .  S
C2696      C2697   1.413       .  A
C2697      C2698   1.398       .  A
C2697      F2704   1.357       .  S
C2698      C2699   1.402       .  A
C2698      H2703   1.082       .  S
C2699      C2700   1.414       .  A
C2705      C2706   1.400       .  A
C2705      C2710   1.398   1_655  A
C2706      C2707   1.411       .  A
C2707      C2708   1.397       .  A
C2707      F2714   1.357       .  S
C2708      C2709   1.403       .  A
C2708      H2713   1.083       .  S
C2709      C2710   1.414   1_655  A
C2715      C2716   1.402       .  A
C2715      C2720   1.398       .  A
C2715      H2722   1.083       .  S
C2716      C2717   1.414       .  A
C2717      C2718   1.398       .  A
C2717      F2724   1.358       .  S
C2718      C2719   1.402       .  A
C2718      H2723   1.083       .  S
C2719      C2720   1.414       .  A
C2720      F2721   1.358       .  S
C2725      C2730   1.396       .  A
C2725      H2732   1.083       .  S
C2726      C2727   1.413   1_455  A
C2727      C2728   1.398       .  A
C2727      F2734   1.357       .  S
C2728      C2729   1.400   1_655  A
C2728      H2733   1.083       .  S
C2730      F2731   1.357       .  S
C2735      C2740   1.400       .  A
C2735      H2742   1.083       .  S
C2736      C2737   1.402   1_455  A
C2737      C2738   1.399       .  A
C2737      F2744   1.357       .  S
C2738      H2743   1.083       .  S
C2739      C2740   1.406       .  A
C2740      F2741   1.357       .  S
C2745      C2750   1.401       .  A
C2745      H2752   1.083       .  S
C2746      C2747   1.402   1_455  A
C2747      C2748   1.398       .  A
C2747      F2754   1.357       .  S
C2748      H2753   1.083       .  S
C2749      C2750   1.407       .  A
C2750      F2751   1.357       .  S
C2755      C2756   1.411   1_655  A
C2755      C2760   1.399       .  A
C2755      H2762   1.082       .  S
C2757      C2758   1.395       .  A
C2757      F2764   1.357       .  S
C2758      C2759   1.409       .  A
C2758      H2763   1.082       .  S
C2760      F2761   1.357       .  S
C2765      C2766   1.402       .  A
C2765      C2770   1.398   1_565  A
C2765      H2772   1.083       .  S
C2766      C2767   1.414       .  A
C2767      C2768   1.399   1_565  A
C2767      F2774   1.358       .  S
C2768      C2769   1.403       .  A
C2768      H2773   1.083       .  S
C2769      C2770   1.414       .  A
C2770      F2771   1.358   1_556  S
C2775      C2776   1.409       .  A
C2775      C2780   1.395       .  A
C2775      H2782   1.082       .  S
C2776      C2777   1.405       .  A
C2777      C2778   1.398   1_655  A
C2778      C2779   1.409   1_455  A
C2779      C2780   1.404       .  A
C2780      F2781   1.357       .  S
C2785      C2786   1.402       .  A
C2785      C2790   1.399       .  A
C2785      H2792   1.083       .  S
C2786      C2787   1.414       .  A
C2787      C2788   1.398       .  A
C2787      F2794   1.358       .  S
C2788      C2789   1.402       .  A
C2788      H2793   1.083       .  S
C2789      C2790   1.415       .  A
C2790      F2791   1.358       .  S
C2795      C2796   1.411       .  A
C2795      C2800   1.398   1_655  A
C2795      H2802   1.083   1_655  S
C2796      C2797   1.407       .  A
C2797      C2798   1.399       .  A
C2797      F2804   1.357       .  S
C2798      C2799   1.408       .  A
C2798      H2803   1.083       .  S
C2799      C2800   1.403   1_655  A
C2805      C2806   1.408       .  A
C2805      C2810   1.400       .  A
C2805      H2812   1.083       .  S
C2806      C2807   1.403   1_655  A
C2807      C2808   1.399   1_455  A
C2808      C2809   1.411       .  A
C2808      H2813   1.083   1_655  S
C2809      C2810   1.407       .  A
C2810      F2811   1.357       .  S
C2815      C2816   1.410   1_455  A
C2815      C2820   1.399       .  A
C2815      H2822   1.082       .  S
C2816      C2817   1.404       .  A
C2817      C2818   1.395       .  A
C2817      F2824   1.357       .  S
C2818      C2819   1.409       .  A
C2818      H2823   1.082       .  S
C2819      C2820   1.405   1_655  A
C2820      F2821   1.357       .  S
C2825      C2826   1.402       .  A
C2825      C2830   1.398       .  A
C2825      H2832   1.083   1_655  S
C2826      C2827   1.414       .  A
C2827      C2828   1.399       .  A
C2827      F2834   1.357       .  S
C2828      C2829   1.400       .  A
C2828      H2833   1.083       .  S
C2829      C2830   1.411       .  A
C2830      F2831   1.357   1_655  S
C2835      C2836   1.400       .  A
C2835      C2840   1.398       .  A
C2835      H2842   1.083       .  S
C2836      C2837   1.410       .  A
C2837      C2838   1.398       .  A
C2837      F2844   1.357       .  S
C2838      C2839   1.403       .  A
C2838      H2843   1.083       .  S
C2839      C2840   1.414       .  A
C2840      F2841   1.357       .  S
C2845      C2846   1.403       .  A
C2845      C2850   1.400       .  A
C2845      H2852   1.083       .  S
C2846      C2847   1.415       .  A
C2847      C2848   1.398       .  A
C2847      F2854   1.358       .  S
C2848      C2849   1.402       .  A
C2849      C2850   1.415       .  A
C2850      F2851   1.358       .  S
C2855      C2856   1.402       .  A
C2855      C2860   1.397       .  A
C2855      H2862   1.083       .  S
C2856      C2857   1.414       .  A
C2857      C2858   1.398       .  A
C2857      F2864   1.357       .  S
C2858      C2859   1.400       .  A
C2858      H2863   1.083       .  S
C2859      C2860   1.411       .  A
C2860      F2861   1.358       .  S
C2865      C2866   1.402       .  A
C2865      C2870   1.398       .  A
C2865      H2872   1.083       .  S
C2866      C2867   1.414       .  A
C2867      C2868   1.398       .  A
C2867      F2874   1.357       .  S
C2868      C2869   1.400       .  A
C2868      H2873   1.083       .  S
C2869      C2870   1.411       .  A
C2870      F2871   1.357       .  S
C2875      C2876   1.410       .  A
C2875      C2880   1.398       .  A
C2875      H2882   1.083   1_556  S
C2876      C2877   1.405       .  A
C2877      C2878   1.398       .  A
C2877      F2884   1.357       .  S
C2878      C2879   1.410       .  A
C2878      H2883   1.083       .  S
C2879      C2880   1.405       .  A
C2885      C2886   1.408       .  A
C2885      C2890   1.401       .  A
C2885      H2892   1.083       .  S
C2886      C2887   1.402       .  A
C2887      C2888   1.398       .  A
C2887      F2894   1.357       .  S
C2888      C2889   1.411       .  A
C2888      H2893   1.083       .  S
C2889      C2890   1.407       .  A
C2890      F2891   1.357       .  S
C2895      C2896   1.411       .  A
C2895      C2900   1.398       .  A
C2895      H2902   1.083       .  S
C2896      C2897   1.406       .  A
C2897      C2898   1.397       .  A
C2897      F2904   1.357   1_655  S
C2898      C2899   1.408       .  A
C2898      H2903   1.083   1_655  S
C2899      C2900   1.403       .  A
C2900      F2901   1.357       .  S
C2905      C2906   1.411       .  A
C2905      C2910   1.398       .  A
C2905      H2912   1.083       .  S
C2906      C2907   1.407       .  A
C2907      C2908   1.400       .  A
C2907      F2914   1.357       .  S
C2908      C2909   1.408       .  A
C2908      H2913   1.083       .  S
C2909      C2910   1.402       .  A
C2910      F2911   1.357       .  S
C2915      C2916   1.410       .  A
C2915      C2920   1.399       .  A
C2915      H2922   1.083       .  S
C2916      C2917   1.405       .  A
C2917      C2918   1.395       .  A
C2917      F2924   1.357       .  S
C2918      C2919   1.408       .  A
C2918      H2923   1.083       .  S
C2919      C2920   1.404       .  A
C2920      F2921   1.357       .  S
C2925      C2926   1.411       .  A
C2925      C2930   1.398       .  A
C2925      H2932   1.082       .  S
C2926      C2927   1.405       .  A
C2927      C2928   1.397       .  A
C2928      C2929   1.409       .  A
C2929      C2930   1.403       .  A
C2930      F2931   1.357       .  S
C2935      C2936   1.399       .  A
C2935      C2940   1.396       .  A
C2935      H2942   1.083       .  S
C2936      C2937   1.410       .  A
C2937      C2938   1.399       .  A
C2937      F2944   1.357       .  S
C2938      C2939   1.403       .  A
C2938      H2943   1.083       .  S
C2939      C2940   1.414       .  A
C2940      F2941   1.357       .  S
C2945      C2946   1.410       .  A
C2945      C2950   1.400   1_545  A
C2945      H2952   1.083       .  S
C2946      C2947   1.405       .  A
C2947      C2948   1.397   1_545  A
C2947      F2954   1.357       .  S
C2948      C2949   1.409       .  A
C2948      H2953   1.083       .  S
C2949      C2950   1.406       .  A
C2955      C2956   1.409       .  A
C2955      C2960   1.398       .  A
C2955      H2962   1.083       .  S
C2956      C2957   1.404       .  A
C2957      C2958   1.397       .  A
C2957      F2964   1.357       .  S
C2958      C2959   1.410       .  A
C2958      H2963   1.083       .  S
C2959      C2960   1.406       .  A
C2960      F2961   1.357       .  S
C2965      C2966   1.403       .  A
C2965      C2970   1.399   1_655  A
C2965      H2972   1.083   1_655  S
C2966      C2967   1.414       .  A
C2967      C2968   1.397       .  A
C2967      F2974   1.357       .  S
C2968      C2969   1.400       .  A
C2968      H2973   1.083       .  S
C2969      C2970   1.411   1_655  A
C2970      F2971   1.357       .  S
C2975      C2976   1.411       .  A
C2975      C2980   1.399       .  A
C2975      H2982   1.083       .  S
C2976      C2977   1.406       .  A
C2977      C2978   1.399       .  A
C2977      F2984   1.357       .  S
C2978      C2979   1.408       .  A
C2978      H2983   1.084       .  S
C2979      C2980   1.402       .  A
C2980      F2981   1.357       .  S
C2985      C2986   1.410       .  A
C2985      C2990   1.397       .  A
C2985      H2992   1.082       .  S
C2986      C2987   1.405       .  A
C2987      C2988   1.399       .  A
C2987      F2994   1.357       .  S
C2988      C2989   1.409       .  A
C2988      H2993   1.082       .  S
C2989      C2990   1.403       .  A
C2990      F2991   1.357       .  S
C2995      C2996   1.410       .  A
C2995      C3000   1.400       .  A
C2995      H3002   1.083       .  S
C2996      C2997   1.405       .  A
C2997      C2998   1.399       .  A
C2997      F3004   1.357       .  S
C2998      C2999   1.410       .  A
C2998      H3003   1.083       .  S
C2999      C3000   1.406       .  A
C3000      F3001   1.357       .  S
C3005      C3006   1.402       .  A
C3005      C3010   1.398       .  A
C3005      H3012   1.083       .  S
C3006      C3007   1.413       .  A
C3007      C3008   1.400       .  A
C3007      F3014   1.357       .  S
C3008      C3009   1.403       .  A
C3008      H3013   1.083       .  S
C3009      C3010   1.414       .  A
C3010      F3011   1.358       .  S
C3015      C3016   1.409       .  A
C3015      C3020   1.396       .  A
C3015      H3022   1.082       .  S
C3016      C3017   1.404       .  A
C3017      C3018   1.398       .  A
C3017      F3024   1.357       .  S
C3018      C3019   1.410       .  A
C3018      H3023   1.082       .  S
C3019      C3020   1.405       .  A
C3020      F3021   1.357       .  S
C3025      C3026   1.400       .  A
C3025      C3030   1.397       .  A
C3025      H3032   1.083       .  S
C3026      C3027   1.410       .  A
C3027      C3028   1.399       .  A
C3027      F3034   1.357       .  S
C3028      C3029   1.403       .  A
C3028      H3033   1.083       .  S
C3029      C3030   1.415       .  A
C3030      F3031   1.357       .  S
C3035      C3036   1.410       .  A
C3035      C3040   1.399       .  A
C3035      H3042   1.083       .  S
C3036      C3037   1.406       .  A
C3037      C3038   1.400       .  A
C3037      F3044   1.357   1_556  S
C3038      C3039   1.410       .  A
C3038      H3043   1.083   1_556  S
C3039      C3040   1.405       .  A
C3045      C3046   1.402       .  A
C3045      C3050   1.398       .  A
C3046      C3047   1.414       .  A
C3047      C3048   1.397       .  A
C3047      F3054   1.356       .  S
C3048      C3049   1.400       .  A
C3048      H3053   1.083       .  S
C3049      C3050   1.412       .  A
C3055      C3056   1.402       .  A
C3055      C3060   1.398       .  A
C3055      H3062   1.083       .  S
C3056      C3057   1.414   1_655  A
C3057      F3064   1.358   1_556  S
C3058      C3059   1.403       .  A
C3058      H3063   1.083   1_556  S
C3060      F3061   1.358       .  S
C3065      C3066   1.410       .  A
C3065      C3070   1.400       .  A
C3065      H3072   1.082       .  S
C3066      C3067   1.405       .  A
C3067      C3068   1.396       .  A
C3067      F3074   1.357       .  S
C3068      C3069   1.409       .  A
C3068      H3073   1.082       .  S
C3069      C3070   1.405       .  A
C3070      F3071   1.357       .  S
C3075      C3076   1.403       .  A
C3075      C3080   1.397       .  A
C3075      H3082   1.083       .  S
C3076      C3077   1.415       .  A
C3077      C3078   1.399       .  A
C3077      F3084   1.357       .  S
C3078      C3079   1.400       .  A
C3078      H3083   1.083       .  S
C3079      C3080   1.410       .  A
C3085      C3086   1.403       .  A
C3085      C3090   1.399       .  A
C3085      H3092   1.083       .  S
C3087      C3088   1.399       .  A
C3087      F3094   1.358       .  S
C3088      C3089   1.403       .  A
C3088      H3093   1.083       .  S
C3090      F3091   1.358       .  S
C3095      C3096   1.408       .  A
C3095      C3100   1.400       .  A
C3095      H3102   1.083       .  S
C3096      C3097   1.402       .  A
C3097      C3098   1.398       .  A
C3097      F3104   1.357       .  S
C3098      C3099   1.410       .  A
C3098      H3103   1.083       .  S
C3099      C3100   1.407       .  A
C3100      F3101   1.357       .  S
C3105      C3106   1.408       .  A
C3105      C3110   1.397       .  A
C3105      H3112   1.082       .  S
C3106      C3107   1.402       .  A
C3107      C3108   1.397       .  A
C3107      F3114   1.357       .  S
C3108      C3109   1.410       .  A
C3108      H3113   1.082       .  S
C3109      C3110   1.405       .  A
C3110      F3111   1.357       .  S
C3115      C3116   1.410       .  A
C3115      C3120   1.399       .  A
C3115      H3122   1.083       .  S
C3116      C3117   1.406       .  A
C3117      C3118   1.399       .  A
C3117      F3124   1.357       .  S
C3118      C3119   1.410       .  A
C3118      H3123   1.083       .  S
C3119      C3120   1.405       .  A
C3120      F3121   1.357   1_655  S
C3125      C3126   1.401       .  A
C3125      C3130   1.398       .  A
C3125      H3132   1.083       .  S
C3126      C3127   1.413       .  A
C3127      C3128   1.398       .  A
C3127      F3134   1.358       .  S
C3128      C3129   1.402       .  A
C3128      H3133   1.083       .  S
C3129      C3130   1.415       .  A
C3130      F3131   1.358       .  S
C3135      C3136   1.401       .  A
C3135      C3140   1.399       .  A
C3135      H3142   1.083       .  S
C3136      C3137   1.411       .  A
C3137      C3138   1.396       .  A
C3137      F3144   1.357       .  S
C3138      C3139   1.402       .  A
C3138      H3143   1.083       .  S
C3139      C3140   1.414       .  A
C3140      F3141   1.357       .  S
C3145      H3152   1.083       .  S
C3146      C3147   1.404       .  A
C3147      C3148   1.397       .  A
C3147      F3154   1.357       .  S
C3148      C3149   1.410       .  A
C3148      H3153   1.082       .  S
C3149      C3150   1.406       .  A
C3155      C3156   1.402       .  A
C3155      C3160   1.398       .  A
C3155      H3162   1.083       .  S
C3156      C3157   1.414   1_655  A
C3157      C3158   1.399       .  A
C3157      F3164   1.358       .  S
C3160      F3161   1.358       .  S
C3165      C3166   1.408       .  A
C3165      C3170   1.397       .  A
C3165      H3172   1.083       .  S
C3166      C3167   1.403       .  A
C3167      C3168   1.398       .  A
C3167      F3174   1.357       .  S
C3168      C3169   1.411       .  A
C3168      H3173   1.082       .  S
C3169      C3170   1.406       .  A
C3170      F3171   1.357       .  S
C3175      C3176   1.410       .  A
C3175      C3180   1.398   1_545  A
C3175      H3182   1.083       .  S
C3176      C3177   1.405       .  A
C3177      C3178   1.398   1_545  A
C3177      F3184   1.357   1_655  S
C3178      C3179   1.410       .  A
C3178      H3183   1.083       .  S
C3179      C3180   1.405       .  A
C3180      F3181   1.357       .  S
C3185      C3186   1.410       .  A
C3185      C3190   1.398       .  A
C3185      H3192   1.083       .  S
C3186      C3187   1.405       .  A
C3187      C3188   1.396       .  A
C3187      F3194   1.357       .  S
C3188      C3189   1.409       .  A
C3188      H3193   1.083       .  S
C3189      C3190   1.404       .  A
C3190      F3191   1.357       .  S
C3195      C3196   1.401       .  A
C3195      C3200   1.399       .  A
C3195      H3202   1.083       .  S
C3196      C3197   1.410       .  A
C3197      C3198   1.398       .  A
C3197      F3204   1.357       .  S
C3198      C3199   1.403       .  A
C3198      H3203   1.083       .  S
C3199      C3200   1.414       .  A
C3200      F3201   1.357       .  S
C3205      C3206   1.402       .  A
C3205      C3210   1.398       .  A
C3205      H3212   1.083       .  S
C3206      C3207   1.414       .  A
C3207      C3208   1.397       .  A
C3207      F3214   1.358       .  S
C3208      C3209   1.402       .  A
C3208      H3213   1.083   1_655  S
C3209      C3210   1.414       .  A
C3210      F3211   1.358       .  S
C3215      C3216   1.411       .  A
C3215      C3220   1.400       .  A
C3215      H3222   1.083       .  S
C3216      C3217   1.407       .  A
C3217      C3218   1.400       .  A
C3217      F3224   1.357       .  S
C3218      C3219   1.408       .  A
C3218      H3223   1.083       .  S
C3219      C3220   1.403       .  A
C3220      F3221   1.357       .  S
C3225      C3226   1.402       .  A
C3226      C3227   1.414       .  A
C3227      C3228   1.398       .  A
C3227      F3234   1.357       .  S
C3228      C3229   1.400       .  A
C3228      H3233   1.083       .  S
C3230      F3231   1.357       .  S
C3235      C3236   1.402       .  A
C3235      H3242   1.083       .  S
C3237      C3238   1.399   1_565  A
C3237      F3244   1.358       .  S
C3238      C3239   1.403       .  A
C3238      H3243   1.083       .  S
C3239      C3240   1.414   1_655  A
C3240      F3241   1.358       .  S
C3245      C3246   1.402       .  A
C3245      C3250   1.397       .  A
C3245      H3252   1.083       .  S
C3246      C3247   1.413       .  A
C3247      C3248   1.399       .  A
C3247      F3254   1.357       .  S
C3248      C3249   1.402       .  A
C3248      H3253   1.083       .  S
C3249      C3250   1.413       .  A
C3250      F3251   1.358       .  S
C3255      C3256   1.400       .  A
C3255      C3260   1.398       .  A
C3255      H3262   1.083       .  S
C3256      C3257   1.411       .  A
C3257      C3258   1.396       .  A
C3257      F3264   1.358       .  S
C3258      C3259   1.402       .  A
C3258      H3263   1.083       .  S
C3259      C3260   1.414       .  A
C3260      F3261   1.357       .  S
