geometry optimzed in LAMMPS
_audit_creation_date              2020-12-01 
_audit_creation_method            'lammps2cif' 
_symmetry_space_group_name_H-M    'P1' 
_symmetry_Int_Tables_number       1 
_symmetry_cell_setting            triclinic 
loop_ 
_symmetry_equiv_pos_as_xyz 
  x,y,z 
_cell_length_a                    76.76418915 
_cell_length_b                    39.452469342581374 
_cell_length_c                    78.88509218945094 
_cell_angle_alpha                 89.98401754477376 
_cell_angle_beta                  89.79960652032977 
_cell_angle_gamma                 90.05364515007709 
loop_ 
_atom_site_label 
_atom_site_type_symbol 
_atom_site_fract_x 
_atom_site_fract_y 
_atom_site_fract_z 
_atom_site_charge 
O1          O  0.58217818  0.27132619  0.86417389    -0.78300
C2          C  0.61911129  0.28838263  0.82245283     0.82700
O3          O  0.63832236  0.22313083  0.88083732    -0.79400
O4          O  0.65976699  0.32900361  0.85703982    -0.80900
O5          O  0.61101450  0.37907924  0.87952104    -0.80700
O6          O  0.58015207  0.31652893  0.88087787    -0.79300
Zn7        Zn  0.60752270  0.26664311  0.85803807     1.55700
O8          O  0.62687563  0.37891700  0.85579510    -0.80700
Cd9        Cd  0.60634900  0.32824534  0.88430123     1.59700
Cd10       Cd  0.63965772  0.27579053  0.88434286     1.59600
O11         O  0.61173758  0.32015360  0.90961335    -0.80700
O12         O  0.62171757  0.29926176  0.86981384    -1.91200
Cd13       Cd  0.63348915  0.32842218  0.85253888     1.59900
O14         O  0.63439886  0.28488791  0.90992148    -0.80700
O15         O  0.62907743  0.31195337  0.82779332    -0.79300
C16         C  0.62696616  0.20571831  0.87281782     0.83200
C17         C  0.57310307  0.29190779  0.87295975     0.82900
O18         O  0.61010046  0.27047723  0.83267929    -0.78300
C19         C  0.61918141  0.39473276  0.86777681     0.83700
O20         O  0.61495435  0.21991941  0.86430262    -0.78400
C21         C  0.62301429  0.30278951  0.91765195     0.83800
C22         C  0.66994785  0.31655906  0.86812395     0.84100
O23         O  0.66459572  0.29528804  0.87922741    -0.80800
O24         O  0.58467627  0.76439531  0.86520763    -0.78300
C25         C  0.61929719  0.79157563  0.82179795     0.82700
O26         O  0.64262686  0.72379893  0.87674284    -0.79400
O27         O  0.65947248  0.83736611  0.85728970    -0.80900
O28         O  0.60852614  0.87617039  0.87992846    -0.80700
O29         O  0.58161408  0.80608123  0.88393827    -0.79300
Zn30       Zn  0.60934870  0.76622053  0.85688999     1.55700
O31         O  0.62286373  0.87804534  0.85524694    -0.80700
Cd32       Cd  0.60733594  0.82431147  0.88522924     1.59700
Cd33       Cd  0.64237469  0.77585055  0.88209890     1.59600
O34         O  0.61569650  0.81703407  0.90999244    -0.80700
O35         O  0.62299824  0.79879511  0.86927424    -1.91200
Cd36       Cd  0.63337360  0.83033841  0.85232294     1.59900
O37         O  0.63826928  0.78165708  0.90798015    -0.80700
O38         O  0.63010469  0.81332066  0.82749552    -0.79300
C39         C  0.63209902  0.70654439  0.86765567     0.83200
C40         C  0.57533535  0.78110502  0.87562288     0.82900
O41         O  0.60966720  0.77424745  0.83171547    -0.78300
C42         C  0.61475361  0.89266816  0.86733912     0.83700
O43         O  0.61941108  0.72030982  0.85997030    -0.78400
C44         C  0.62765017  0.79922868  0.91683354     0.83800
C45         C  0.67052867  0.82400796  0.86727794     0.84100
O46         O  0.66645573  0.79918141  0.87694615    -0.80800
O47         O  0.58903789  0.23630170  0.62983574    -0.78300
C48         C  0.62613809  0.21017658  0.67027758     0.82700
O49         O  0.64657278  0.27843565  0.61349014    -0.79400
O50         O  0.66468036  0.16658724  0.63325808    -0.80900
O51         O  0.61369581  0.12573442  0.61160260    -0.80700
O52         O  0.58487923  0.19283810  0.61236655    -0.79300
Zn53       Zn  0.61452054  0.23652017  0.63569808     1.55700
O54         O  0.62961408  0.12299042  0.63515820    -0.80700
Cd55       Cd  0.61068108  0.17779833  0.60800438     1.59700
Cd56       Cd  0.64596694  0.22623682  0.60866552     1.59600
O57         O  0.61629361  0.18809061  0.58281063    -0.80700
O58         O  0.62734985  0.20347306  0.62276188    -1.91200
Cd59       Cd  0.63861081  0.17154197  0.63891583     1.59900
O60         O  0.64011510  0.22052770  0.58322123    -0.80700
O61         O  0.63554748  0.18656365  0.66406889    -0.79300
C62         C  0.63630478  0.29611670  0.62268928     0.83200
C63         C  0.57898105  0.21783125  0.62092936     0.82900
O64         O  0.61712249  0.22945254  0.66079322    -0.78300
C65         C  0.62140417  0.10864193  0.62310470     0.83700
O66         O  0.62394874  0.28267836  0.63112813    -0.78400
C67         C  0.62816192  0.20492562  0.57516809     0.83800
C68         C  0.67507510  0.17940468  0.62238332     0.84100
O69         O  0.67030052  0.20317874  0.61241069    -0.80800
O70         O  0.58857779  0.73305592  0.62960799    -0.78300
C71         C  0.62563025  0.70964078  0.67008433     0.82700
O72         O  0.64562035  0.77967164  0.61361248    -0.79400
O73         O  0.66483964  0.66977270  0.63369047    -0.80900
O74         O  0.61551983  0.62526949  0.61055859    -0.80700
O75         O  0.58589146  0.68968150  0.61178447    -0.79300
Zn76       Zn  0.61405209  0.73568445  0.63535979     1.55700
O77         O  0.63084897  0.62279797  0.63446627    -0.80700
Cd78       Cd  0.61179302  0.67709622  0.60726037     1.59700
Cd79       Cd  0.64591134  0.72765041  0.60837264     1.59600
O80         O  0.61703952  0.68855266  0.58215703    -0.80700
O81         O  0.62757357  0.70369420  0.62238404    -1.91200
Cd82       Cd  0.63872353  0.67203598  0.63871722     1.59900
O83         O  0.64030523  0.72241447  0.58265319    -0.80700
O84         O  0.63505319  0.68601211  0.66393765    -0.79300
C85         C  0.63495721  0.79665083  0.62272289     0.83200
C86         C  0.57918775  0.71351211  0.62058239     0.82900
O87         O  0.61675688  0.72896165  0.66049999    -0.78300
C88         C  0.62310225  0.60829745  0.62216554     0.83700
O89         O  0.62263030  0.78245675  0.63089141    -0.78400
C90         C  0.62850386  0.70642594  0.57453712     0.83800
C91         C  0.67534456  0.68305338  0.62307648     0.84100
O92         O  0.67055208  0.70620849  0.61274587    -0.80800
O93         O  0.40779093  0.22733752  0.87190375    -0.78300
C94         C  0.36849920  0.20454619  0.83274918     0.82700
O95         O  0.35126099  0.27422649  0.88870697    -0.79400
O96         O  0.33186400  0.16112590  0.87104518    -0.80900
O97         O  0.38308437  0.11975305  0.89071336    -0.80700
O98         O  0.41112417  0.18693918  0.89128431    -0.79300
Zn99       Zn  0.38224878  0.22931096  0.86674499     1.55700
O100        O  0.36664616  0.11732041  0.86746653    -0.80700
Cd101      Cd  0.38537229  0.17167693  0.89529440     1.59700
Cd102      Cd  0.35090032  0.22211889  0.89426467     1.59600
O103        O  0.37929301  0.18099413  0.92058380    -0.80700
O104        O  0.36910074  0.19773647  0.88032442    -1.91200
Cd105      Cd  0.35745920  0.16589467  0.86444289     1.59900
O106        O  0.35669198  0.21650960  0.91985923    -0.80700
O107        O  0.35897647  0.18151741  0.83932253    -0.79300
C108        C  0.36183150  0.29079238  0.87926181     0.83200
C109        C  0.41747388  0.20989358  0.88165198     0.82900
O110        O  0.37854416  0.22264153  0.84181637    -0.78300
C111        C  0.37541869  0.10287691  0.87909450     0.83700
O112        O  0.37395357  0.27617168  0.87104243    -0.78400
C113        C  0.36793373  0.19931772  0.92809937     0.83800
C114        C  0.32145144  0.17516488  0.88145819     0.84100
O115        O  0.32615168  0.20012427  0.89073169    -0.80800
O116        O  0.40754566  0.73102021  0.87161538    -0.78300
C117        C  0.37024884  0.70556842  0.83119686     0.82700
O118        O  0.35000773  0.77284909  0.88807546    -0.79400
O119        O  0.33275191  0.65933709  0.86829740    -0.80900
O120        O  0.38376058  0.62025687  0.88942717    -0.80700
O121        O  0.41173045  0.68928477  0.89010063    -0.79300
Zn122      Zn  0.38211268  0.73145188  0.86584484     1.55700
O123        O  0.36817212  0.61770173  0.86567303    -0.80700
Cd124      Cd  0.38602153  0.67245496  0.89367076     1.59700
Cd125      Cd  0.35036055  0.72037062  0.89249578     1.59600
O126        O  0.37966973  0.68155843  0.91884820    -0.80700
O127        O  0.36940756  0.69803422  0.87874759    -1.91200
Cd128      Cd  0.35859783  0.66586107  0.86250762     1.59900
O129        O  0.35598271  0.71428517  0.91803189    -0.80700
O130        O  0.36127731  0.68141816  0.83750843    -0.79300
C131        C  0.36102069  0.79102144  0.87994138     0.83200
C132        C  0.41756524  0.71385663  0.88116426     0.82900
O133        O  0.37909417  0.72539544  0.84059040    -0.78300
C134        C  0.37642345  0.60324691  0.87764462     0.83700
O135        O  0.37344358  0.77763443  0.87159037    -0.78400
C136        C  0.36770795  0.69845461  0.92629631     0.83800
C137        C  0.32191912  0.67212209  0.87873018     0.84100
O138        O  0.32603823  0.69689209  0.88838882    -0.80800
O139        O  0.41026137  0.25398991  0.63837944    -0.78300
C140        C  0.37291216  0.27631580  0.68004790     0.82700
O141        O  0.35371511  0.20947472  0.62312069    -0.79400
O142        O  0.33334685  0.32130773  0.64385586    -0.80900
O143        O  0.38565885  0.36341759  0.62368265    -0.80700
O144        O  0.41302208  0.29553766  0.61956479    -0.79300
Zn145      Zn  0.38500143  0.25294110  0.64515777     1.55700
O146        O  0.36975742  0.36434951  0.64744926    -0.80700
Cd147      Cd  0.38719863  0.31210577  0.61776852     1.59700
Cd148      Cd  0.35269366  0.26181011  0.61938844     1.59600
O149        O  0.37988226  0.30531496  0.59278105    -0.80700
O150        O  0.37123835  0.28544617  0.63290796    -1.91200
Cd151      Cd  0.35957083  0.31613129  0.64949644     1.59900
O152        O  0.35700741  0.27040121  0.59390268    -0.80700
O153        O  0.36250708  0.29864300  0.67422547    -0.79300
C154        C  0.36473015  0.19221097  0.63158923     0.83200
C155        C  0.41957896  0.27136934  0.62820264     0.82900
O156        O  0.38265745  0.25891769  0.67028076    -0.78300
C157        C  0.37872223  0.37938562  0.63606517     0.83700
O158        O  0.37673423  0.20642444  0.64007541    -0.78400
C159        C  0.36798397  0.28804875  0.58553290     0.83800
C160        C  0.32290676  0.30594801  0.63392759     0.84100
O161        O  0.32798436  0.28146224  0.62454517    -0.80800
O162        O  0.41274247  0.75922677  0.63608614    -0.78300
C163        C  0.37501552  0.77463466  0.67782830     0.82700
O164        O  0.35737837  0.70893271  0.61940302    -0.79400
O165        O  0.33409968  0.81485656  0.64190224    -0.80900
O166        O  0.38406192  0.86633756  0.62283035    -0.80700
O167        O  0.41403858  0.80400579  0.61903048    -0.79300
Zn168      Zn  0.38745558  0.75399345  0.64245579     1.55700
O169        O  0.36799059  0.86303777  0.64637183    -0.80700
Cd170      Cd  0.38785519  0.81601538  0.61628674     1.59700
Cd171      Cd  0.35551231  0.76141332  0.61552860     1.59600
O172        O  0.38215099  0.81002183  0.59089072    -0.80700
O173        O  0.37284033  0.78559660  0.63042143    -1.91200
Cd174      Cd  0.36017649  0.81318341  0.64762953     1.59900
O175        O  0.36123198  0.77082612  0.59006620    -0.80700
O176        O  0.36377100  0.79555345  0.67221742    -0.79300
C177        C  0.36843926  0.69213444  0.62810488     0.83200
C178        C  0.42146515  0.77995200  0.62702562     0.82900
O179        O  0.38519427  0.75872744  0.66783438    -0.78300
C180        C  0.37635054  0.88028083  0.63536438     0.83700
O181        O  0.38014021  0.70687114  0.63681795    -0.78400
C182        C  0.37179518  0.79099006  0.58260026     0.83800
C183        C  0.32433319  0.80152330  0.63070643     0.84100
O184        O  0.33019366  0.77988212  0.62003375    -0.80800
O185        O  0.91421649  0.02489873  0.63051910    -0.78300
C186        C  0.87336619  0.03962148  0.66833487     0.82700
O187        O  0.85891898  0.97741223  0.60905896    -0.79400
O188        O  0.83742525  0.08687801  0.63160560    -0.80900
O189        O  0.88952017  0.13231275  0.61312072    -0.80700
O190        O  0.91778799  0.06588014  0.61149515    -0.79300
Zn191      Zn  0.88841551  0.01988326  0.63379883     1.55700
O192        O  0.87207210  0.13246568  0.63578604    -0.80700
Cd193      Cd  0.89205012  0.08097673  0.60737850     1.59700
Cd194      Cd  0.85742791  0.03033767  0.60640894     1.59600
O195        O  0.88669380  0.07416940  0.58185643    -0.80700
O196        O  0.87537911  0.05321075  0.62123752    -1.91200
Cd197      Cd  0.86327867  0.08317206  0.63773536     1.59900
O198        O  0.86349811  0.04004356  0.58113569    -0.80700
O199        O  0.86516610  0.06506032  0.66237623    -0.79300
C200        C  0.87113266  0.96020874  0.61588999     0.83200
C201        C  0.92404974  0.04292978  0.62112360     0.82900
O202        O  0.88267844  0.02075617  0.65882338    -0.78300
C203        C  0.88137464  0.14806687  0.62486016     0.83700
O204        O  0.88284088  0.97410161  0.62488962    -0.78400
C205        C  0.87525668  0.05743977  0.57363014     0.83800
C206        C  0.82714539  0.07341437  0.62091301     0.84100
O207        O  0.83228559  0.05012329  0.61077643    -0.80800
O208        O  0.91349523  0.52378746  0.63259950    -0.78300
C209        C  0.87828071  0.54622199  0.67529135     0.82700
O210        O  0.85601096  0.47778349  0.61968321    -0.79400
O211        O  0.83694768  0.58795642  0.64110270    -0.80900
O212        O  0.88633331  0.63242478  0.61671286    -0.80700
O213        O  0.91543580  0.56655380  0.61436295    -0.79300
Zn214      Zn  0.88845437  0.52163131  0.63989236     1.55700
O215        O  0.87132092  0.63472539  0.64094510    -0.80700
Cd216      Cd  0.88941740  0.58086098  0.61235571     1.59700
Cd217      Cd  0.85537776  0.53013428  0.61499206     1.59600
O218        O  0.88241415  0.57156369  0.58754190    -0.80700
O219        O  0.87422308  0.55407367  0.62807841    -1.91200
Cd220      Cd  0.86340503  0.58519327  0.64507017     1.59900
O221        O  0.85946696  0.53698852  0.58916178    -0.80700
O222        O  0.86823996  0.56959858  0.66988324    -0.79300
C223        C  0.86762541  0.46049820  0.62739814     0.83200
C224        C  0.92242746  0.54232707  0.62261657     0.82900
O225        O  0.88694631  0.52761369  0.66512811    -0.78300
C226        C  0.87901983  0.64930699  0.62856454     0.83700
O227        O  0.88025164  0.47482290  0.63495723    -0.78400
C228        C  0.87053722  0.55393277  0.58051424     0.83800
C229        C  0.82632639  0.57467948  0.63064761     0.84100
O230        O  0.83108110  0.55158151  0.62026669    -0.80800
O231        O  0.90568003  0.48855851  0.86784912    -0.78300
C232        C  0.86940273  0.46479594  0.82673117     0.82700
O233        O  0.84822906  0.52912694  0.88425770    -0.79400
O234        O  0.83122793  0.41762033  0.86292494    -0.80900
O235        O  0.88201645  0.37630955  0.88386671    -0.80700
O236        O  0.91021729  0.44494552  0.88514103    -0.79300
Zn237      Zn  0.88052821  0.48840454  0.86184779     1.55700
O238        O  0.86675340  0.37584389  0.85984948    -0.80700
Cd239      Cd  0.88444621  0.42829711  0.88903578     1.59700
Cd240      Cd  0.84894233  0.47654494  0.88848486     1.59600
O241        O  0.87831545  0.43674299  0.91452392    -0.80700
O242        O  0.86786177  0.45468233  0.87437982    -1.91200
Cd243      Cd  0.85709857  0.42404797  0.85738129     1.59900
O244        O  0.85473390  0.46980433  0.91397904    -0.80700
O245        O  0.85988128  0.44093344  0.83251837    -0.79300
C246        C  0.85893514  0.54716637  0.87568575     0.83200
C247        C  0.91585461  0.47044333  0.87673291     0.82900
O248        O  0.87835847  0.48339195  0.83659023    -0.78300
C249        C  0.87488328  0.36036428  0.87158374     0.83700
O250        O  0.87131695  0.53377595  0.86733170    -0.78400
C251        C  0.86644778  0.45369603  0.92213872     0.83800
C252        C  0.82049255  0.42944418  0.87373469     0.84100
O253        O  0.82475731  0.45300450  0.88406604    -0.80800
O254        O  0.91103175  0.97629142  0.86324973    -0.78300
C255        C  0.87411893  0.96624896  0.82118637     0.82700
O256        O  0.85477425  0.03084953  0.87774406    -0.79400
O257        O  0.83273176  0.92180702  0.85533566    -0.80900
O258        O  0.87974588  0.87300435  0.87775269    -0.80700
O259        O  0.91112587  0.93362821  0.88163207    -0.79300
Zn260      Zn  0.88606681  0.98462179  0.85698821     1.55700
O261        O  0.86695508  0.87519076  0.85242184    -0.80700
Cd262      Cd  0.88442189  0.92349900  0.88353809     1.59700
Cd263      Cd  0.85188458  0.97835025  0.88097345     1.59600
O264        O  0.87697610  0.93190307  0.90846804    -0.80700
O265        O  0.87052968  0.95328584  0.86808224    -1.91200
Cd266      Cd  0.85904408  0.92496927  0.85055982     1.59900
O267        O  0.85552384  0.96981011  0.90657287    -0.80700
O268        O  0.86344210  0.94366823  0.82634310    -0.79300
C269        C  0.86810391  0.04685974  0.87215009     0.83200
C270        C  0.91918782  0.95620163  0.87304567     0.82900
O271        O  0.88370041  0.98271640  0.83148086    -0.78300
C272        C  0.87333770  0.85841679  0.86474232     0.83700
O273        O  0.88057096  0.03160749  0.86469778    -0.78400
C274        C  0.86556044  0.95102047  0.91534546     0.83800
C275        C  0.82204562  0.93565273  0.86559287     0.84100
O276        O  0.82683638  0.95930550  0.87564652    -0.80800
O277        O  0.08596026  0.00550800  0.86911767    -0.78300
C278        C  0.12409843  0.02091244  0.82798775     0.82700
O279        O  0.14388183  0.95761518  0.88378429    -0.79400
O280        O  0.16274245  0.06785525  0.86315263    -0.80900
O281        O  0.11463019  0.11259875  0.88563582    -0.80700
O282        O  0.08390672  0.04906629  0.88692524    -0.79300
Zn283      Zn  0.11133780  0.00055312  0.86332466     1.55700
O284        O  0.12792876  0.11182940  0.86044428    -0.80700
Cd285      Cd  0.11021511  0.06124830  0.89045442     1.59700
Cd286      Cd  0.14402106  0.00980574  0.88868687     1.59600
O287        O  0.11631205  0.05124215  0.91566498    -0.80700
O288        O  0.12535745  0.03315366  0.87523761    -1.91200
Cd289      Cd  0.13664793  0.06285369  0.85811870     1.59900
O290        O  0.13876131  0.01547260  0.91428172    -0.80700
O291        O  0.13357342  0.04489930  0.83364602    -0.79300
C292        C  0.13178739  0.94010614  0.87692261     0.83200
C293        C  0.07685511  0.02532042  0.87831419     0.82900
O294        O  0.11459366  0.00318538  0.83787401    -0.78300
C295        C  0.12132634  0.12794218  0.87290634     0.83700
O296        O  0.11878795  0.95414592  0.86983975    -0.78400
C297        C  0.12772237  0.03260453  0.92283733     0.83800
C298        C  0.17311389  0.05578128  0.87415950     0.84100
O299        O  0.16829043  0.03273049  0.88455784    -0.80800
O300        O  0.08512708  0.50513523  0.85948361    -0.78300
C301        C  0.12516111  0.52331843  0.82121554     0.82700
O302        O  0.14088147  0.45756137  0.87976399    -0.79400
O303        O  0.16244143  0.56698584  0.85830963    -0.80900
O304        O  0.11046573  0.61116131  0.87828757    -0.80700
O305        O  0.08165554  0.54620405  0.87841458    -0.79300
Zn306      Zn  0.11098349  0.50072663  0.85573808     1.55700
O307        O  0.12811788  0.61370736  0.85575952    -0.80700
Cd308      Cd  0.10745931  0.55984042  0.88290499     1.59700
Cd309      Cd  0.14214903  0.51023038  0.88322149     1.59600
O310        O  0.11232290  0.55093133  0.90833064    -0.80700
O311        O  0.12419655  0.53338895  0.86856804    -1.91200
Cd312      Cd  0.13640581  0.56425001  0.85238912     1.59900
O313        O  0.13616359  0.51863077  0.90861018    -0.80700
O314        O  0.13386279  0.54804487  0.82732082    -0.79300
C315        C  0.12899246  0.44030285  0.87242005     0.83200
C316        C  0.07531832  0.52336575  0.86879599     0.82900
O317        O  0.11600071  0.50411339  0.83070744    -0.78300
C318        C  0.11884317  0.62806781  0.86712616     0.83700
O319        O  0.11723126  0.45433771  0.86352485    -0.78400
C320        C  0.12404005  0.53457471  0.91632653     0.83800
C321        C  0.17254566  0.55361962  0.86919976     0.84100
O322        O  0.16719674  0.53051129  0.87933656    -0.80800
O323        O  0.08630057  0.47342371  0.62580145    -0.78300
C324        C  0.12124826  0.45129965  0.66819168     0.82700
O325        O  0.14261721  0.51889608  0.61016515    -0.79400
O326        O  0.16304040  0.41198698  0.63449926    -0.80900
O327        O  0.11270454  0.36448344  0.61036098    -0.80700
O328        O  0.08381528  0.43012742  0.60795109    -0.79300
Zn329      Zn  0.11136449  0.47597333  0.63273678     1.55700
O330        O  0.12866901  0.36383985  0.63393492    -0.80700
Cd331      Cd  0.10987605  0.41596108  0.60540733     1.59700
Cd332      Cd  0.14417380  0.46637841  0.60705004     1.59600
O333        O  0.11679605  0.42413906  0.58034292    -0.80700
O334        O  0.12536493  0.44325825  0.62070169    -1.91200
Cd335      Cd  0.13643187  0.41308958  0.63780691     1.59900
O336        O  0.14060606  0.45653651  0.58142532    -0.80700
O337        O  0.13120555  0.42796363  0.66260154    -0.79300
C338        C  0.13162838  0.53647240  0.61858969     0.83200
C339        C  0.07707647  0.45454763  0.61630053     0.82900
O340        O  0.11275649  0.47035993  0.65814047    -0.78300
C341        C  0.12038519  0.34847863  0.62225070     0.83700
O342        O  0.11961143  0.52255651  0.62730027    -0.78400
C343        C  0.12917772  0.44012401  0.57304266     0.83800
C344        C  0.17385458  0.42654136  0.62460368     0.84100
O345        O  0.16893029  0.44845437  0.61368543    -0.80800
O346        O  0.08820186  0.97295400  0.63244857    -0.78300
C347        C  0.12261061  0.94903042  0.67514071     0.82700
O348        O  0.14469224  0.02065791  0.61965598    -0.79400
O349        O  0.16550287  0.91189628  0.64040480    -0.80900
O350        O  0.11576763  0.86527850  0.61650651    -0.80700
O351        O  0.08616412  0.93021202  0.61421482    -0.79300
Zn352      Zn  0.11300847  0.97510452  0.64006276     1.55700
O353        O  0.13083631  0.86430164  0.64067306    -0.80700
Cd354      Cd  0.11252740  0.91682894  0.61173709     1.59700
Cd355      Cd  0.14606857  0.96883848  0.61453659     1.59600
O356        O  0.11985018  0.92639946  0.58674730    -0.80700
O357        O  0.12751848  0.94386391  0.62763340    -1.91200
Cd358      Cd  0.13891860  0.91347082  0.64448395     1.59900
O359        O  0.14210281  0.96257205  0.58868557    -0.80700
O360        O  0.13372181  0.92782611  0.66944602    -0.79300
C361        C  0.13378502  0.03703763  0.62874820     0.83200
C362        C  0.07917169  0.95422400  0.62270903     0.82900
O363        O  0.11345109  0.96699895  0.66518157    -0.78300
C364        C  0.12291795  0.84914508  0.62868008     0.83700
O365        O  0.12152154  0.02223860  0.63671855    -0.78400
C366        C  0.13149425  0.94505238  0.57984747     0.83800
C367        C  0.17603524  0.92679808  0.63032985     0.84100
O368        O  0.17088639  0.94971849  0.62004501    -0.80800
O369        O  0.38536581  0.21669516  0.17237971    -0.78300
C370        C  0.42379263  0.20290620  0.13164652     0.82700
O371        O  0.35730884  0.26585469  0.12453339    -0.79400
O372        O  0.38582437  0.17106576  0.09403362    -0.80900
O373        O  0.37226543  0.11100747  0.14795231    -0.80700
O374        O  0.36553725  0.17611052  0.17538853    -0.79300
Zn375      Zn  0.38861162  0.22255149  0.14710009     1.55700
O376        O  0.38858361  0.11192978  0.12448429    -0.80700
Cd377      Cd  0.36315846  0.15981213  0.15042037     1.59700
Cd378      Cd  0.35716672  0.21358337  0.11949053     1.59600
O379        O  0.33721834  0.15541850  0.14428150    -0.80700
O380        O  0.37520476  0.19037053  0.13403797    -1.91200
Cd381      Cd  0.39148538  0.16338563  0.11944102     1.59900
O382        O  0.33235734  0.19156815  0.12312122    -0.80700
O383        O  0.41730072  0.17863432  0.12300178    -0.79300
C384        C  0.36770700  0.28291757  0.13387141     0.83200
C385        C  0.37538311  0.19882915  0.18173970     0.82900
O386        O  0.41425212  0.22138371  0.14113724    -0.78300
C387        C  0.38091206  0.09582612  0.13641057     0.83700
O388        O  0.37980325  0.26876952  0.14226906    -0.78400
C389        C  0.32712627  0.16825337  0.13322016     0.83800
C390        C  0.37465271  0.18894409  0.08610287     0.84100
O391        O  0.36333691  0.20680185  0.09395428    -0.80800
O392        O  0.38605772  0.72006871  0.16876576    -0.78300
C393        C  0.42398830  0.70102634  0.12794921     0.82700
O394        O  0.35924189  0.76619091  0.11968893    -0.79400
O395        O  0.38508771  0.66856781  0.09136487    -0.80900
O396        O  0.37109617  0.61047243  0.14496388    -0.80700
O397        O  0.36800842  0.67682134  0.17302526    -0.79300
Zn398      Zn  0.38939471  0.72329307  0.14345865     1.55700
O399        O  0.38806207  0.61096892  0.12196581    -0.80700
Cd400      Cd  0.36407149  0.66055164  0.14832653     1.59700
Cd401      Cd  0.35766657  0.71354752  0.11692864     1.59600
O402        O  0.33774130  0.66039964  0.14429036    -0.80700
O403        O  0.37572644  0.69031670  0.13131410    -1.91200
Cd404      Cd  0.39138740  0.66212535  0.11667206     1.59900
O405        O  0.33273935  0.69515579  0.12257037    -0.80700
O406        O  0.41728888  0.67675211  0.11948130    -0.79300
C407        C  0.37042240  0.78374318  0.12782658     0.83200
C408        C  0.37706860  0.70141791  0.17867089     0.82900
O409        O  0.41473910  0.71977751  0.13754018    -0.78300
C410        C  0.37963123  0.59498838  0.13343191     0.83700
O411        O  0.38210453  0.76974363  0.13681683    -0.78400
C412        C  0.32740073  0.67401318  0.13371940     0.83800
C413        C  0.37338587  0.68535094  0.08358268     0.84100
O414        O  0.36224472  0.70339001  0.09151615    -0.80800
O415        O  0.36607461  0.30534659  0.42144793    -0.78300
C416        C  0.37854479  0.38238623  0.38224120     0.82700
O417        O  0.33164068  0.28209469  0.37184796    -0.79400
O418        O  0.38420896  0.30286691  0.34065999    -0.80900
O419        O  0.41529719  0.26250448  0.38911592    -0.80700
O420        O  0.38585424  0.26428702  0.42069192    -0.79300
Zn421      Zn  0.36249086  0.31829961  0.39701466     1.55700
O422        O  0.41590761  0.30300797  0.36943170    -0.80700
Cd423      Cd  0.38916715  0.25694444  0.39494064     1.59700
Cd424      Cd  0.35669371  0.26222033  0.36825557     1.59600
O425        O  0.38226451  0.20770228  0.38975094    -0.80700
O426        O  0.37444647  0.28850134  0.38148712    -1.91200
Cd427      Cd  0.38975454  0.31534425  0.36574253     1.59900
O428        O  0.35834966  0.21060285  0.37380785    -0.80700
O429        O  0.38621391  0.36728136  0.36997684    -0.79300
C430        C  0.32652603  0.30579369  0.38171117     0.83200
C431        C  0.37589762  0.28416348  0.42896586     0.82900
O432        O  0.37038416  0.36595299  0.39366137    -0.78300
C433        C  0.42367377  0.28143639  0.37882498     0.83700
O434        O  0.33697654  0.32003810  0.39197874    -0.78400
C435        C  0.36987801  0.19347156  0.38172109     0.83800
C436        C  0.37335301  0.28247293  0.33384857     0.84100
O437        O  0.36231154  0.26588455  0.34267510    -0.80800
O438        O  0.38901321  0.76275314  0.33976345    -0.78300
C439        C  0.42464682  0.77002096  0.38135458     0.82700
O440        O  0.35676367  0.71134096  0.38473881    -0.79400
O441        O  0.38524319  0.80144891  0.41792355    -0.80900
O442        O  0.37565657  0.86758855  0.36523065    -0.80700
O443        O  0.37050296  0.80527186  0.33575634    -0.79300
Zn444      Zn  0.38984542  0.75398379  0.36464997     1.55700
O445        O  0.39145286  0.86305329  0.38881347    -0.80700
Cd446      Cd  0.36604724  0.81953540  0.36084301     1.59700
Cd447      Cd  0.35697481  0.76359567  0.38999524     1.59600
O448        O  0.33960711  0.82439181  0.36507098    -0.80700
O449        O  0.37644266  0.78673364  0.37721621    -1.91200
Cd450      Cd  0.39270454  0.81098465  0.39303214     1.59900
O451        O  0.33274758  0.78623835  0.38482352    -0.80700
O452        O  0.41849157  0.79445324  0.39013302    -0.79300
C453        C  0.36732418  0.69406502  0.37563137     0.83200
C454        C  0.38056839  0.78228611  0.32995644     0.82900
O455        O  0.41492350  0.75262709  0.37163655    -0.78300
C456        C  0.38446918  0.88094567  0.37717228     0.83700
O457        O  0.37999430  0.70794701  0.36787199    -0.78400
C458        C  0.32849942  0.81054105  0.37493235     0.83800
C459        C  0.37263769  0.78507623  0.42466460     0.84100
O460        O  0.36122098  0.76974910  0.41575988    -0.80800
O461        O  0.61822216  0.27390611  0.16005642    -0.78300
C462        C  0.57902343  0.29116126  0.12194978     0.82700
O463        O  0.64747524  0.22951726  0.11437018    -0.79400
O464        O  0.61663767  0.31790610  0.08280729    -0.80900
O465        O  0.62957558  0.38524650  0.13560990    -0.80700
O466        O  0.63399455  0.31992943  0.16511035    -0.79300
Zn467      Zn  0.61459277  0.27016397  0.13522542     1.55700
O468        O  0.61415343  0.38143973  0.11172263    -0.80700
Cd469      Cd  0.63782564  0.33603816  0.14004497     1.59700
Cd470      Cd  0.64638988  0.28169886  0.10945345     1.59600
O471        O  0.66415877  0.33958281  0.13577003    -0.80700
O472        O  0.62743959  0.30414353  0.12313595    -1.91200
Cd473      Cd  0.61101362  0.32939775  0.10803612     1.59900
O474        O  0.67036543  0.30496999  0.11423513    -0.80700
O475        O  0.58510904  0.31533350  0.11289996    -0.79300
C476        C  0.63650727  0.21137046  0.12252215     0.83200
C477        C  0.62607470  0.29339850  0.17031924     0.82900
O478        O  0.58903012  0.27218862  0.13059220    -0.78300
C479        C  0.62155932  0.39904339  0.12324666     0.83700
O480        O  0.62335484  0.22430151  0.12987291    -0.78400
C481        C  0.67490517  0.32738139  0.12506131     0.83800
C482        C  0.62876323  0.30114657  0.07549261     0.84100
O483        O  0.64087947  0.28677954  0.08388387    -0.80800
O484        O  0.61449992  0.77637170  0.15975226    -0.78300
C485        C  0.57747896  0.79475928  0.11982047     0.82700
O486        O  0.64406591  0.73081441  0.11175528    -0.79400
O487        O  0.61571010  0.82687490  0.08280901    -0.80900
O488        O  0.62908233  0.88529808  0.13688279    -0.80700
O489        O  0.63286886  0.81892313  0.16439454    -0.79300
Zn490      Zn  0.61236293  0.77184949  0.13439452     1.55700
O491        O  0.61339933  0.88492697  0.11316624    -0.80700
Cd492      Cd  0.63689283  0.83559708  0.13969084     1.59700
Cd493      Cd  0.64405642  0.78346267  0.10795236     1.59600
O494        O  0.66303511  0.83901603  0.13475986    -0.80700
O495        O  0.62570546  0.80568917  0.12250744    -1.91200
Cd496      Cd  0.60979111  0.83379266  0.10815787     1.59900
O497        O  0.66848649  0.80503040  0.11277252    -0.80700
O498        O  0.58382016  0.81984804  0.11164681    -0.79300
C499        C  0.63303385  0.71232850  0.11968271     0.83200
C500        C  0.62311873  0.79509597  0.16986092     0.82900
O501        O  0.58714338  0.77513148  0.12847450    -0.78300
C502        C  0.62123853  0.90084113  0.12497645     0.83700
O503        O  0.62056229  0.72538510  0.12812372    -0.78400
C504        C  0.67337924  0.82714293  0.12360506     0.83800
C505        C  0.62725648  0.81010520  0.07472983     0.84100
O506        O  0.63866175  0.79227862  0.08240805    -0.80800
O507        O  0.62012368  0.24103226  0.33412553    -0.78300
C508        C  0.58317818  0.22164822  0.37479450     0.82700
O509        O  0.65095392  0.28709633  0.37861586    -0.79400
O510        O  0.62397746  0.19485562  0.41113852    -0.80900
O511        O  0.63275696  0.13106324  0.35708600    -0.80700
O512        O  0.63724600  0.19709953  0.32849290    -0.79300
Zn513      Zn  0.61758640  0.24502281  0.35917918     1.55700
O514        O  0.61920313  0.13411573  0.38208694    -0.80700
Cd515      Cd  0.64157174  0.18010831  0.35321224     1.59700
Cd516      Cd  0.65113383  0.23480481  0.38323376     1.59600
O517        O  0.66791805  0.17542125  0.35705066    -0.80700
O518        O  0.63170316  0.21180545  0.37051430    -1.91200
Cd519      Cd  0.61655942  0.18557318  0.38641066     1.59900
O520        O  0.67519576  0.21252477  0.37716191    -0.80700
O521        O  0.59045202  0.19866919  0.38368393    -0.79300
C522        C  0.63946064  0.30494791  0.37108149     0.83200
C523        C  0.62828787  0.22249883  0.32358252     0.82900
O524        O  0.59209886  0.24109088  0.36520641    -0.78300
C525        C  0.62549072  0.11690474  0.36982964     0.83700
O526        O  0.62615442  0.29163209  0.36417841    -0.78400
C527        C  0.67915497  0.18864012  0.36689011     0.83800
C528        C  0.63622038  0.21191177  0.41795537     0.84100
O529        O  0.64733183  0.22835125  0.40911153    -0.80800
O530        O  0.62125240  0.74041668  0.33213436    -0.78300
C531        C  0.58432070  0.72359651  0.37354521     0.82700
O532        O  0.65155372  0.78743478  0.37799410    -0.79400
O533        O  0.62391065  0.69569676  0.40993833    -0.80900
O534        O  0.63650780  0.63175801  0.35699888    -0.80700
O535        O  0.63869193  0.69624964  0.32780000    -0.79300
Zn536      Zn  0.61887855  0.74513520  0.35747534     1.55700
O537        O  0.62079357  0.63391884  0.38083046    -0.80700
Cd538      Cd  0.64379627  0.68129133  0.35248777     1.59700
Cd539      Cd  0.65172276  0.73536593  0.38258676     1.59600
O540        O  0.67042868  0.68006418  0.35551556    -0.80700
O541        O  0.63276996  0.71218802  0.36938180    -1.91200
Cd542      Cd  0.61725625  0.68560956  0.38496948     1.59900
O543        O  0.67607071  0.71421435  0.37729431    -0.80700
O544        O  0.59110590  0.69959795  0.38216061    -0.79300
C545        C  0.63970456  0.80526131  0.37101571     0.83200
C546        C  0.62956267  0.72076222  0.32217437     0.82900
O547        O  0.59358397  0.74216396  0.36385615    -0.78300
C548        C  0.62864413  0.61712678  0.36925493     0.83700
O549        O  0.62680738  0.79167946  0.36352761    -0.78400
C550        C  0.68103936  0.69286580  0.36611429     0.83800
C551        C  0.63578915  0.71336514  0.41699271     0.84100
O552        O  0.64714218  0.72953749  0.40833346    -0.80800
O553        O  0.88558105  0.01224135  0.33166373    -0.78300
C554        C  0.92449852  0.03334810  0.37116974     0.82700
O555        O  0.85630434  0.97106933  0.37739968    -0.79400
O556        O  0.88502769  0.06328207  0.40847519    -0.80900
O557        O  0.87630480  0.12598910  0.35376729    -0.80700
O558        O  0.87010613  0.05850131  0.32612242    -0.79300
Zn559      Zn  0.88953494  0.01108337  0.35678476     1.55700
O560        O  0.89003722  0.12301348  0.37859101    -0.80700
Cd561      Cd  0.86665991  0.07718622  0.35069126     1.59700
Cd562      Cd  0.85673694  0.02386454  0.38134766     1.59600
O563        O  0.84046717  0.08347868  0.35514017    -0.80700
O564        O  0.87625953  0.04560247  0.36809276    -1.91200
Cd565      Cd  0.89204259  0.07154503  0.38344019     1.59900
O566        O  0.83298780  0.04762832  0.37578835    -0.80700
O567        O  0.91786577  0.05671784  0.38030831    -0.79300
C568        C  0.86858287  0.95251206  0.37154525     0.83200
C569        C  0.87776182  0.03148737  0.32120273     0.82900
O570        O  0.91508440  0.01489374  0.36163708    -0.78300
C571        C  0.88390020  0.14019044  0.36627136     0.83700
O572        O  0.88196521  0.96539189  0.36450006    -0.78400
C573        C  0.82920611  0.07138281  0.36539247     0.83800
C574        C  0.87262892  0.04712392  0.41566490     0.84100
O575        O  0.86112612  0.03119579  0.40712418    -0.80800
O576        O  0.87017892  0.56649147  0.41641173    -0.78300
C577        C  0.88173268  0.64043546  0.37529107     0.82700
O578        O  0.83246413  0.54385962  0.36889315    -0.79400
O579        O  0.88489275  0.55708787  0.33529716    -0.80900
O580        O  0.91552276  0.51565713  0.38246135    -0.80700
O581        O  0.88782727  0.52193692  0.41554731    -0.79300
Zn582      Zn  0.86545853  0.57858494  0.39209298     1.55700
O583        O  0.91685591  0.55779450  0.36363693    -0.80700
Cd584      Cd  0.88963632  0.51334393  0.38962653     1.59700
Cd585      Cd  0.85668883  0.52190618  0.36370624     1.59600
O586        O  0.88106005  0.46474009  0.38501898    -0.80700
O587        O  0.87553821  0.54648298  0.37639491    -1.91200
Cd588      Cd  0.89088000  0.57134078  0.35995449     1.59900
O589        O  0.85718464  0.47008272  0.36920505    -0.80700
O590        O  0.88794959  0.62382569  0.36276064    -0.79300
C591        C  0.82834196  0.56739730  0.37928774     0.83200
C592        C  0.87923855  0.54401886  0.42389305     0.82900
O593        O  0.87427242  0.62569091  0.38770496    -0.78300
C594        C  0.92417644  0.53459227  0.37238330     0.83700
O595        O  0.83964899  0.58123204  0.38882193    -0.78400
C596        C  0.86825992  0.45176231  0.37706488     0.83800
C597        C  0.87304414  0.53860624  0.32872126     0.84100
O598        O  0.86123269  0.52463423  0.33775440    -0.80800
O599        O  0.88093437  0.48113228  0.16652987    -0.78300
C600        C  0.92291713  0.46879527  0.12920208     0.82700
O601        O  0.85597939  0.52626815  0.11736524    -0.79400
O602        O  0.88725305  0.43628553  0.08826088    -0.80900
O603        O  0.87367810  0.37037710  0.14004761    -0.80700
O604        O  0.86599381  0.43323076  0.16942757    -0.79300
Zn605      Zn  0.88637931  0.48611978  0.14172183     1.55700
O606        O  0.89133207  0.37640699  0.11773554    -0.80700
Cd607      Cd  0.86391605  0.41858354  0.14404698     1.59700
Cd608      Cd  0.85668669  0.47382734  0.11355482     1.59600
O609        O  0.83797191  0.41357560  0.13804146    -0.80700
O610        O  0.87494567  0.45203684  0.12826322    -1.91200
Cd611      Cd  0.89260775  0.42841524  0.11373577     1.59900
O612        O  0.83239358  0.45173657  0.11789414    -0.80700
O613        O  0.91767131  0.44628665  0.11875822    -0.79300
C614        C  0.86650780  0.54494039  0.12570013     0.83200
C615        C  0.87302010  0.45962558  0.17581879     0.82900
O616        O  0.91228478  0.48477788  0.13868164    -0.78300
C617        C  0.88336347  0.35776422  0.12849299     0.83700
O618        O  0.87851687  0.53217603  0.13475573    -0.78400
C619        C  0.82758206  0.42750990  0.12758593     0.83800
C620        C  0.87497685  0.45103626  0.08026574     0.84100
O621        O  0.86258572  0.46604568  0.08805847    -0.80800
O622        O  0.88365326  0.98466224  0.15663531    -0.78300
C623        C  0.92159350  0.96061804  0.11694164     0.82700
O624        O  0.85550419  0.02933818  0.11004907    -0.79400
O625        O  0.88171967  0.93258589  0.08043212    -0.80900
O626        O  0.86949421  0.87326048  0.13466002    -0.80700
O627        O  0.86653072  0.94057556  0.16218762    -0.79300
Zn628      Zn  0.88714373  0.98613842  0.13144754     1.55700
O629        O  0.88518648  0.87359755  0.11082078    -0.80700
Cd630      Cd  0.86197509  0.92325836  0.13765624     1.59700
Cd631      Cd  0.85436763  0.97651923  0.10644529     1.59600
O632        O  0.83563494  0.92128004  0.13358165    -0.80700
O633        O  0.87295115  0.95303126  0.12018852    -1.91200
Cd634      Cd  0.88830482  0.92471196  0.10540103     1.59900
O635        O  0.82975388  0.95636671  0.11219129    -0.80700
O636        O  0.91446006  0.93746411  0.10807233    -0.79300
C637        C  0.86780250  0.04670987  0.11666501     0.83200
C638        C  0.87535781  0.96612950  0.16713248     0.82900
O639        O  0.91254469  0.98020735  0.12628134    -0.78300
C640        C  0.87765690  0.85772729  0.12289461     0.83700
O641        O  0.88048188  0.03251226  0.12417575    -0.78400
C642        C  0.82496374  0.93418628  0.12308180     0.83800
C643        C  0.87008486  0.94971869  0.07275301     0.84100
O644        O  0.85883956  0.96745964  0.08076418    -0.80800
O645        O  0.11302676  0.01484648  0.16485853    -0.78300
C646        C  0.07844546  0.03322650  0.12366826     0.82700
O647        O  0.14407855  0.96611136  0.11827896    -0.79400
O648        O  0.11752241  0.06579488  0.08880337    -0.80900
O649        O  0.13112526  0.11956785  0.14453298    -0.80700
O650        O  0.13434614  0.05134747  0.17017677    -0.79300
Zn651      Zn  0.11224087  0.00994361  0.13963818     1.55700
O652        O  0.11525419  0.12317753  0.12098040    -0.80700
Cd653      Cd  0.13875548  0.06966944  0.14584116     1.59700
Cd654      Cd  0.14474264  0.01871443  0.11364325     1.59600
O655        O  0.16496360  0.07203058  0.14069762    -0.80700
O656        O  0.12679967  0.04234430  0.12818807    -1.91200
Cd657      Cd  0.11161185  0.07255769  0.11423164     1.59900
O658        O  0.16970802  0.03957002  0.11800570    -0.80700
O659        O  0.08543556  0.05920040  0.11678759    -0.79300
C660        C  0.13313337  0.94919818  0.12716696     0.83200
C661        C  0.12287219  0.03024451  0.17526289     0.82900
O662        O  0.08741585  0.01219015  0.13217608    -0.78300
C663        C  0.12300465  0.13703017  0.13351277     0.83700
O664        O  0.12082334  0.96366944  0.13515452    -0.78400
C665        C  0.17507399  0.06059064  0.12920966     0.83800
C666        C  0.12779488  0.04622224  0.08064039     0.84100
O667        O  0.13848563  0.02659150  0.08821839    -0.80800
O668        O  0.13819346  0.56198942  0.08140729    -0.78300
C669        C  0.12490872  0.63578136  0.12177002     0.82700
O670        O  0.17266218  0.53644666  0.13119320    -0.79400
O671        O  0.11837951  0.55306110  0.16214649    -0.80900
O672        O  0.09032222  0.51406650  0.11217252    -0.80700
O673        O  0.11997505  0.51834055  0.08127192    -0.79300
Zn674      Zn  0.14171757  0.57305390  0.10613773     1.55700
O675        O  0.08786311  0.55403960  0.13201379    -0.80700
Cd676      Cd  0.11647849  0.51010734  0.10697820     1.59700
Cd677      Cd  0.14772246  0.51633818  0.13483477     1.59600
O678        O  0.12412381  0.46126009  0.11172933    -0.80700
O679        O  0.13000009  0.54208506  0.12129184    -1.91200
Cd680      Cd  0.11375591  0.56724178  0.13699952     1.59900
O681        O  0.14689450  0.46467547  0.12914378    -0.80700
O682        O  0.11694807  0.61973897  0.13358699    -0.79300
C683        C  0.17782241  0.55913969  0.12076880     0.83200
C684        C  0.12930716  0.53995340  0.07340597     0.82900
O685        O  0.13369133  0.62028876  0.11046613    -0.78300
C686        C  0.08105953  0.53226478  0.12203248     0.83700
O687        O  0.16730991  0.57350671  0.11061732    -0.78400
C688        C  0.13621298  0.44735481  0.12027820     0.83800
C689        C  0.12968333  0.53366996  0.16899708     0.84100
O690        O  0.14158304  0.51924715  0.16029751    -0.80800
O691        O  0.13466684  0.41827145  0.40846428    -0.78300
C692        C  0.12129063  0.34797874  0.36629125     0.82700
O693        O  0.17252813  0.44266238  0.36136766    -0.79400
O694        O  0.12044083  0.43395618  0.32705977    -0.80900
O695        O  0.08940216  0.47317812  0.37528021    -0.80700
O696        O  0.11636008  0.46182844  0.40787477    -0.79300
Zn697      Zn  0.13875578  0.40759960  0.38368058     1.55700
O698        O  0.08734721  0.43355511  0.35524519    -0.80700
Cd699      Cd  0.11512286  0.47321567  0.38242703     1.59700
Cd700      Cd  0.14844913  0.46610843  0.35708057     1.59600
O701        O  0.12434307  0.52167091  0.37958651    -0.80700
O702        O  0.12897247  0.44095028  0.36859123    -1.91200
Cd703      Cd  0.11329629  0.41846318  0.35151902     1.59900
O704        O  0.14845471  0.51726468  0.36389286    -0.80700
O705        O  0.11508009  0.36548970  0.35406404    -0.79300
C706        C  0.17590858  0.41641677  0.37024894     0.83200
C707        C  0.12510102  0.43988899  0.41606600     0.82900
O708        O  0.12909381  0.36193672  0.37866284    -0.78300
C709        C  0.08041667  0.45609349  0.36476082     0.83700
O710        O  0.16423296  0.40206951  0.37921597    -0.78400
C711        C  0.13746302  0.53499055  0.37224813     0.83800
C712        C  0.13276988  0.45273758  0.32144609     0.84100
O713        O  0.14413138  0.46568516  0.33127625    -0.80800
O714        O  0.11892608  0.96908784  0.33632627    -0.78300
C715        C  0.07990813  0.95117770  0.37523187     0.82700
O716        O  0.14596124  0.01778367  0.38388475    -0.79400
O717        O  0.11827287  0.92210799  0.41405365    -0.80900
O718        O  0.13059816  0.86121568  0.36034531    -0.80700
O719        O  0.13743311  0.92639293  0.33282323    -0.79300
Zn720      Zn  0.11514935  0.97373316  0.36139609     1.55700
O721        O  0.11474833  0.86314649  0.38403422    -0.80700
Cd722      Cd  0.13989808  0.91004100  0.35774571     1.59700
Cd723      Cd  0.14675106  0.96498139  0.38832770     1.59600
O724        O  0.16576385  0.90534579  0.36371219    -0.80700
O725        O  0.12848736  0.94134944  0.37416804    -1.91200
Cd726      Cd  0.11221255  0.91454216  0.38883019     1.59900
O727        O  0.17151428  0.94322758  0.38392026    -0.80700
O728        O  0.08636005  0.92842091  0.38483339    -0.79300
C729        C  0.13452741  0.03494274  0.37579384     0.83200
C730        C  0.12815171  0.95026112  0.32676863     0.82900
O731        O  0.08957582  0.96966980  0.36590982    -0.78300
C732        C  0.12203959  0.84649630  0.37211066     0.83700
O733        O  0.12240728  0.02042231  0.36756986    -0.78400
C734        C  0.17625615  0.91892424  0.37418166     0.83800
C735        C  0.12986977  0.93910603  0.42189915     0.84100
O736        O  0.14120852  0.95693737  0.41400638    -0.80800
C737        C  0.12139165  0.80895837  0.37236697    -0.03000
C738        C  0.11292739  0.79160928  0.38561265    -0.05600
C739        C  0.11392303  0.75629218  0.38675647    -0.20700
C740        C  0.12352624  0.73759201  0.37482220     0.25000
C741        C  0.13145785  0.75481843  0.36121909    -0.18300
C742        C  0.13042456  0.79008496  0.36004092    -0.08200
C743        C  0.12463128  0.70020585  0.37678048    -0.18500
C744        C  0.13773501  0.68135676  0.37034148    -0.23300
C745        C  0.13860797  0.64385205  0.37195591     0.27100
C746        C  0.14838361  0.62539090  0.36003407    -0.20100
C747        C  0.14873132  0.58993313  0.36052835    -0.09700
C748        C  0.13929444  0.57228246  0.37299651    -0.10300
C749        C  0.13021159  0.59080262  0.38541507    -0.03200
C750        C  0.12995908  0.62616923  0.38498913    -0.18300
H751        H  0.10584433  0.80534309  0.39531459     0.10800
H752        H  0.10749139  0.74358688  0.39722868     0.10800
H753        H  0.13839060  0.74126609  0.35138431     0.10500
H754        H  0.13699945  0.80259746  0.34960376     0.11600
H755        H  0.11429533  0.68811421  0.38398077     0.11700
H756        H  0.14806251  0.69354507  0.36316331     0.13600
H757        H  0.15534437  0.63841043  0.34999189     0.10100
H758        H  0.15580430  0.57634520  0.35076509     0.12200
H759        H  0.12303038  0.57789660  0.39534724     0.08800
H760        H  0.12292539  0.63937844  0.39487331     0.11600
C761        C  0.12042125  0.31038799  0.36613359    -0.03000
C762        C  0.11607189  0.29236815  0.35139000    -0.05600
C763        C  0.11726565  0.25690194  0.35105494    -0.20700
C764        C  0.12292277  0.23877942  0.36537690     0.25000
C765        C  0.12660064  0.25677877  0.38030733    -0.18300
C766        C  0.12541756  0.29207176  0.38064594    -0.08200
C767        C  0.12413660  0.20115095  0.36453353    -0.18500
C768        C  0.13404931  0.18227353  0.37507154    -0.23300
C769        C  0.13430315  0.14449035  0.37485260     0.27100
C770        C  0.14836574  0.12696701  0.38218347    -0.20100
C771        C  0.14864463  0.09136490  0.38259167    -0.09700
C772        C  0.13479301  0.07263073  0.37571197    -0.10300
C773        C  0.12066959  0.09031682  0.36859278    -0.03200
C774        C  0.12036448  0.12562728  0.36825226    -0.18300
H775        H  0.11220734  0.30567786  0.34000314     0.10800
H776        H  0.11406727  0.24360783  0.33946160     0.10800
H777        H  0.13027547  0.24380262  0.39182709     0.10500
H778        H  0.12865729  0.30506823  0.39231057     0.11600
H779        H  0.11692127  0.18882260  0.35447019     0.11700
H780        H  0.14260380  0.19478271  0.38403221     0.13600
H781        H  0.15918016  0.14087412  0.38758110     0.10100
H782        H  0.15967088  0.07856619  0.38823224     0.12200
H783        H  0.10960807  0.07685750  0.36339730     0.08800
H784        H  0.10894041  0.13787515  0.36313468     0.11600
C785        C  0.13391040  0.46066676  0.30306182    -0.03000
C786        C  0.14890967  0.47641681  0.29645266    -0.05600
C787        C  0.14986052  0.48556253  0.27937106    -0.20700
C788        C  0.13578568  0.47969980  0.26846145     0.25000
C789        C  0.12082967  0.46345399  0.27494725    -0.18300
C790        C  0.11992581  0.45400980  0.29207596    -0.08200
C791        C  0.13757900  0.49001221  0.25037758    -0.18500
C792        C  0.12400930  0.49636333  0.24003424    -0.23300
C793        C  0.12612459  0.50718377  0.22202215     0.27100
C794        C  0.11238759  0.52429451  0.21398657    -0.20100
C795        C  0.11370855  0.53399850  0.19693445    -0.09700
C796        C  0.12874665  0.52637752  0.18745936    -0.10300
C797        C  0.14250068  0.50929939  0.19551861    -0.03200
C798        C  0.14121466  0.49975737  0.21254368    -0.18300
H799        H  0.15996874  0.48182256  0.30450671     0.10800
H800        H  0.16160104  0.49768811  0.27470273     0.10800
H801        H  0.10989827  0.45760224  0.26684117     0.10500
H802        H  0.10819806  0.44189311  0.29675760     0.11600
H803        H  0.15072068  0.49432983  0.24576718     0.11700
H804        H  0.11085365  0.49512693  0.24506407     0.13600
H805        H  0.10055010  0.53006090  0.22091458     0.10100
H806        H  0.10278048  0.54671088  0.19106830     0.12200
H807        H  0.15421038  0.50271837  0.18857206     0.08800
H808        H  0.15189591  0.48569429  0.21800675     0.11600
C809        C  0.13420184  0.91185024  0.12859593    -0.03000
C810        C  0.12616376  0.89574211  0.14249062    -0.05600
C811        C  0.12552987  0.86052177  0.14357642    -0.20700
C812        C  0.13262318  0.84041591  0.13068359     0.25000
C813        C  0.14116343  0.85633857  0.11695982    -0.18300
C814        C  0.14201542  0.89183900  0.11597843    -0.08200
C815        C  0.13092874  0.80303873  0.13221634    -0.18500
C816        C  0.12968362  0.78231553  0.11873567    -0.23300
C817        C  0.12748368  0.74488590  0.11999548     0.27100
C818        C  0.13164779  0.72526671  0.10575015    -0.20100
C819        C  0.13034325  0.69001983  0.10628595    -0.09700
C820        C  0.12463643  0.67335252  0.12106776    -0.10300
C821        C  0.11980347  0.69293305  0.13518409    -0.03200
C822        C  0.12121062  0.72837831  0.13467975    -0.18300
H823        H  0.12015695  0.91043982  0.15252704     0.10800
H824        H  0.11906845  0.84892534  0.15434973     0.10800
H825        H  0.14723842  0.84150755  0.10704105     0.10500
H826        H  0.14832223  0.90358215  0.10516876     0.11600
H827        H  0.12994246  0.79274474  0.14492697     0.11700
H828        H  0.13053340  0.79310051  0.10609373     0.13600
H829        H  0.13627697  0.73722539  0.09421562     0.10100
H830        H  0.13403400  0.67576578  0.09510753     0.12200
H831        H  0.11530424  0.68084695  0.14672409     0.08800
H832        H  0.11727898  0.74253037  0.14577606     0.11600
C833        C  0.13724011  0.40994009  0.12008384    -0.03000
C834        C  0.12927650  0.39185146  0.10687881    -0.05600
C835        C  0.12823239  0.35661068  0.10740788    -0.20700
C836        C  0.13485796  0.33857072  0.12125982     0.25000
C837        C  0.14352273  0.35644798  0.13419645    -0.18300
C838        C  0.14475710  0.39189002  0.13356331    -0.08200
C839        C  0.13227785  0.30128595  0.12154015    -0.18500
C840        C  0.13183677  0.28254345  0.13579749    -0.23300
C841        C  0.12830325  0.24552683  0.13558255     0.27100
C842        C  0.13563483  0.22509499  0.14820604    -0.20100
C843        C  0.13335353  0.18996437  0.14787701    -0.09700
C844        C  0.12351870  0.17449414  0.13497593    -0.10300
C845        C  0.11542512  0.19515737  0.12282929    -0.03200
C846        C  0.11773863  0.23032254  0.12315411    -0.18300
H847        H  0.12351443  0.40502290  0.09622960     0.10800
H848        H  0.12171757  0.34345672  0.09718410     0.10800
H849        H  0.14930071  0.34329226  0.14481321     0.10500
H850        H  0.15102219  0.40520434  0.14388168     0.11600
H851        H  0.12989486  0.28908735  0.10944773     0.11700
H852        H  0.13443328  0.29425139  0.14796056     0.13600
H853        H  0.14359652  0.23623710  0.15805108     0.10100
H854        H  0.13973356  0.17486419  0.15749390     0.12200
H855        H  0.10761414  0.18412428  0.11284497     0.08800
H856        H  0.11125848  0.24545224  0.11363586     0.11600
C857        C  0.12822413  0.95700804  0.30831297    -0.03000
C858        C  0.14188925  0.94535440  0.29796586    -0.05600
C859        C  0.14252305  0.95406474  0.28077711    -0.20700
C860        C  0.12935352  0.97396462  0.27353090     0.25000
C861        C  0.11550645  0.98510464  0.28382434    -0.18300
C862        C  0.11498571  0.97677109  0.30102492    -0.08200
C863        C  0.13093391  0.98434851  0.25550847    -0.18500
C864        C  0.11707894  0.99163558  0.24576627    -0.23300
C865        C  0.11874761  0.00253076  0.22785777     0.27100
C866        C  0.10560221  0.99371238  0.21640059    -0.20100
C867        C  0.10683742  0.00321154  0.19939185    -0.09700
C868        C  0.12112199  0.02232837  0.19353404    -0.10300
C869        C  0.13401142  0.03217440  0.20514247    -0.03200
C870        C  0.13287289  0.02227214  0.22214649    -0.18300
H871        H  0.15234106  0.93032132  0.30325309     0.10800
H872        H  0.15339016  0.94540920  0.27313010     0.10800
H873        H  0.10536066  0.00121714  0.27880023     0.10500
H874        H  0.10430097  0.98620054  0.30868198     0.11600
H875        H  0.14389843  0.98485143  0.24994704     0.11700
H876        H  0.10401502  0.98774711  0.25072712     0.13600
H877        H  0.09450252  0.97885978  0.22056016     0.10100
H878        H  0.09663104  0.99535136  0.19079785     0.12200
H879        H  0.14513503  0.04698632  0.20103128     0.08800
H880        H  0.14295763  0.03032899  0.23081497     0.11600
C881        C  0.94076179  0.96533915  0.11643721    -0.03000
C882        C  0.95150127  0.94421490  0.10656108    -0.05600
C883        C  0.96958398  0.94910219  0.10626778    -0.20700
C884        C  0.97724260  0.97543236  0.11562735     0.25000
C885        C  0.96650602  0.99634691  0.12559570    -0.18300
C886        C  0.94851167  0.99140935  0.12595038    -0.08200
C887        C  0.99647281  0.97971098  0.11541232    -0.18500
C888        C  0.00422588  0.00995264  0.11792713    -0.23300
C889        C  0.02339092  0.01471347  0.11868496     0.27100
C890        C  0.03039239  0.04675866  0.11494819    -0.20100
C891        C  0.04829552  0.05275433  0.11630280    -0.09700
C892        C  0.05952871  0.02693695  0.12176737    -0.10300
C893        C  0.05250428  0.99485683  0.12558516    -0.03200
C894        C  0.03464279  0.98875863  0.12403229    -0.18300
H895        H  0.94595410  0.92386552  0.09911001     0.10800
H896        H  0.97760609  0.93242838  0.09862647     0.10800
H897        H  0.97197217  0.01614487  0.13343994     0.10500
H898        H  0.94067568  0.00802284  0.13379484     0.11600
H899        H  0.00435670  0.95757499  0.11258385     0.11700
H900        H  0.99623841  0.03255352  0.11901209     0.13600
H901        H  0.02196216  0.06725956  0.11097970     0.10100
H902        H  0.05329470  0.07774730  0.11334799     0.12200
H903        H  0.06082086  0.97440433  0.12983655     0.08800
H904        H  0.02967061  0.96401895  0.12748098     0.11600
C905        C  0.86524898  0.58237767  0.12487238    -0.03000
C906        C  0.85042028  0.59875624  0.11843798    -0.05600
C907        C  0.84963765  0.63427843  0.11794487    -0.20700
C908        C  0.86378752  0.65392315  0.12351348     0.25000
C909        C  0.87852465  0.63745176  0.13003290    -0.18300
C910        C  0.87923295  0.60219945  0.13070001    -0.08200
C911        C  0.86276622  0.69150665  0.12310271    -0.18500
C912        C  0.87700637  0.71107951  0.12094385    -0.23300
C913        C  0.87669576  0.74865127  0.12146196     0.27100
C914        C  0.88944354  0.76678374  0.11243925    -0.20100
C915        C  0.88988381  0.80219729  0.11298937    -0.09700
C916        C  0.87780633  0.82018790  0.12291973    -0.10300
C917        C  0.86526846  0.80197628  0.13226203    -0.03200
C918        C  0.86465866  0.76657515  0.13149043    -0.18300
H919        H  0.83940283  0.58416864  0.11395654     0.10800
H920        H  0.83804873  0.64644376  0.11306167     0.10800
H921        H  0.88943197  0.65173440  0.13495724     0.10500
H922        H  0.89084793  0.59046308  0.13578049     0.11600
H923        H  0.84999920  0.70317022  0.12413494     0.11700
H924        H  0.88943508  0.69915903  0.11814175     0.13600
H925        H  0.89899670  0.75349186  0.10480013     0.10100
H926        H  0.89971012  0.81549034  0.10567822     0.12200
H927        H  0.85573974  0.81512280  0.13998666     0.08800
H928        H  0.85497620  0.75332839  0.13898635     0.11600
C929        C  0.86778697  0.08426741  0.11601146    -0.03000
C930        C  0.85248006  0.10294950  0.11327808    -0.05600
C931        C  0.85275546  0.13849197  0.11425308    -0.20700
C932        C  0.86836419  0.15590914  0.11763297     0.25000
C933        C  0.88368815  0.13710801  0.12000178    -0.18300
C934        C  0.88338890  0.10184898  0.11917835    -0.08200
C935        C  0.86821200  0.19333841  0.11986915    -0.18500
C936        C  0.88240941  0.21283742  0.11721954    -0.23300
C937        C  0.88287490  0.24977375  0.12073574     0.27100
C938        C  0.89412986  0.27049429  0.11125093    -0.20100
C939        C  0.89480475  0.30544290  0.11416075    -0.09700
C940        C  0.88441983  0.32034551  0.12684442    -0.10300
C941        C  0.87372768  0.29928480  0.13685255    -0.03200
C942        C  0.87293076  0.26439487  0.13381462    -0.18300
H943        H  0.84025431  0.09010785  0.11092276     0.10800
H944        H  0.84073177  0.15240913  0.11253972     0.10800
H945        H  0.89586226  0.14938620  0.12314018     0.10500
H946        H  0.89543634  0.08827500  0.12134537     0.11600
H947        H  0.85602762  0.20511902  0.12366938     0.11700
H948        H  0.89405006  0.20165156  0.11173350     0.13600
H949        H  0.90213688  0.25970393  0.10128956     0.10100
H950        H  0.90318692  0.32086281  0.10622232     0.12200
H951        H  0.86560119  0.30985442  0.14677359     0.08800
H952        H  0.86459535  0.24893405  0.14176699     0.11600
C953        C  0.06189989  0.52749232  0.12168639    -0.03000
C954        C  0.05430341  0.50902486  0.10838509    -0.05600
C955        C  0.03637663  0.50352061  0.10794059    -0.20700
C956        C  0.02555258  0.51578309  0.12088462     0.25000
C957        C  0.03303019  0.53463292  0.13418167    -0.18300
C958        C  0.05106008  0.54050740  0.13453393    -0.08200
C959        C  0.00661157  0.50841471  0.11972468    -0.18500
C960        C  0.99581147  0.50676348  0.13317974    -0.23300
C961        C  0.97720500  0.49650281  0.13178422     0.27100
C962        C  0.96546725  0.50694427  0.14439163    -0.20100
C963        C  0.94790686  0.49769976  0.14360324    -0.09700
C964        C  0.94169999  0.47732479  0.13028253    -0.10300
C965        C  0.95351074  0.46617315  0.11785383    -0.03200
C966        C  0.97107127  0.47560613  0.11858697    -0.18300
H967        H  0.06222090  0.49879386  0.09822086     0.10800
H968        H  0.03096052  0.48912295  0.09751478     0.10800
H969        H  0.02504135  0.54522616  0.14417544     0.10500
H970        H  0.05652460  0.55491241  0.14492519     0.11600
H971        H  0.00161841  0.50260518  0.10720797     0.11700
H972        H  0.00065672  0.51294275  0.14571243     0.13600
H973        H  0.96986403  0.52264009  0.15480381     0.10100
H974        H  0.93917852  0.50657135  0.15345915     0.12200
H975        H  0.94916410  0.45036084  0.10747461     0.08800
H976        H  0.97978515  0.46591799  0.10894843     0.11600
C977        C  0.94320102  0.52886902  0.37060372    -0.03000
C978        C  0.95386653  0.55255814  0.36221885    -0.05600
C979        C  0.97175886  0.54668904  0.36038153    -0.20700
C980        C  0.97931403  0.51675463  0.36655676     0.25000
C981        C  0.96867739  0.49311030  0.37502133    -0.18300
C982        C  0.95084513  0.49915606  0.37705209    -0.08200
C983        C  0.99843053  0.51178536  0.36482982    -0.18500
C984        C  0.00596893  0.48097372  0.36390977    -0.23300
C985        C  0.02516714  0.47597683  0.36329023     0.27100
C986        C  0.03199354  0.44644883  0.35585600    -0.20100
C987        C  0.04996807  0.44017473  0.35593078    -0.09700
C988        C  0.06144168  0.46303681  0.36377214    -0.10300
C989        C  0.05457245  0.49262299  0.37117259    -0.03200
C990        C  0.03668455  0.49905443  0.37092378    -0.18300
H991        H  0.94841131  0.57574909  0.35716917     0.10800
H992        H  0.97971652  0.56548882  0.35400142     0.10800
H993        H  0.97413820  0.47025071  0.38040438     0.10500
H994        H  0.94302094  0.48039107  0.38360732     0.11600
H995        H  0.00645943  0.53436383  0.36377603     0.11700
H996        H  0.99781526  0.45851221  0.36322084     0.13600
H997        H  0.02337628  0.42811438  0.35003311     0.10100
H998        H  0.05483126  0.41710896  0.35018735     0.12200
H999        H  0.06303105  0.51079886  0.37732729     0.08800
H1000       H  0.03190564  0.52160063  0.37720321     0.11600
C1001       C  0.87337934  0.53231674  0.31014669    -0.03000
C1002       C  0.88795508  0.54183705  0.30042572    -0.05600
C1003       C  0.88879193  0.53435590  0.28312336    -0.20700
C1004       C  0.87513131  0.51709441  0.27504976     0.25000
C1005       C  0.86034528  0.50812159  0.28467818    -0.18300
C1006       C  0.85953547  0.51550139  0.30204703    -0.08200
C1007       C  0.87676620  0.51004526  0.25653995    -0.18500
C1008       C  0.86726007  0.48673331  0.24809760    -0.23300
C1009       C  0.86921280  0.48006459  0.22955555     0.27100
C1010       C  0.86310921  0.44924236  0.22287238    -0.20100
C1011       C  0.86443304  0.44229550  0.20548191    -0.09700
C1012       C  0.87186099  0.46614036  0.19435271    -0.10300
C1013       C  0.87786844  0.49705522  0.20103765    -0.03200
C1014       C  0.87647276  0.50404784  0.21835464    -0.18300
H1015       H  0.89889539  0.55467528  0.30623219     0.10800
H1016       H  0.90027518  0.54182661  0.27603989     0.10800
H1017       H  0.84927906  0.49575071  0.27889775     0.10500
H1018       H  0.84806202  0.50801516  0.30913404     0.11600
H1019       H  0.88688813  0.52378099  0.24983073     0.11700
H1020       H  0.85817762  0.47084645  0.25503206     0.13600
H1021       H  0.85731273  0.43041204  0.23114685     0.10100
H1022       H  0.85960404  0.41830954  0.20076230     0.12200
H1023       H  0.88345190  0.51624606  0.19282894     0.08800
H1024       H  0.88076749  0.52859928  0.22274314     0.11600
C1025       C  0.88257377  0.67781770  0.37554890    -0.03000
C1026       C  0.88595344  0.69471612  0.39084945    -0.05600
C1027       C  0.88516010  0.73004933  0.39172319    -0.20700
C1028       C  0.88032524  0.74911593  0.37750307     0.25000
C1029       C  0.87708198  0.73231635  0.36210004    -0.18300
C1030       C  0.87841245  0.69690799  0.36108755    -0.08200
C1031       C  0.87969376  0.78655298  0.37892362    -0.18500
C1032       C  0.86747424  0.80574828  0.37134950    -0.23300
C1033       C  0.86760475  0.84337292  0.37249094     0.27100
C1034       C  0.85187919  0.86165768  0.37240738    -0.20100
C1035       C  0.85196791  0.89727329  0.37277582    -0.09700
C1036       C  0.86782770  0.91507073  0.37275315    -0.10300
C1037       C  0.88349620  0.89664479  0.37287920    -0.03200
C1038       C  0.88340119  0.86131919  0.37281368    -0.18300
H1039       H  0.88915603  0.68050250  0.40216717     0.10800
H1040       H  0.88793834  0.74250911  0.40365041     0.10800
H1041       H  0.87371298  0.74655656  0.35084501     0.10500
H1042       H  0.87560596  0.68436550  0.34919237     0.11600
H1043       H  0.88913750  0.79851705  0.38722888     0.11700
H1044       H  0.85691546  0.79358030  0.36451380     0.13600
H1045       H  0.83953832  0.84835352  0.37202473     0.10100
H1046       H  0.83971500  0.91084480  0.37252731     0.12200
H1047       H  0.89593892  0.90962491  0.37285006     0.08800
H1048       H  0.89575556  0.84812797  0.37246052     0.11600
C1049       C  0.86691387  0.41426190  0.37639222    -0.03000
C1050       C  0.85612973  0.39812593  0.36450166    -0.05600
C1051       C  0.85666008  0.36284758  0.36252925    -0.20700
C1052       C  0.86799200  0.34296952  0.37233197     0.25000
C1053       C  0.87808463  0.35900709  0.38485371    -0.18300
C1054       C  0.87761149  0.39418876  0.38677205    -0.08200
C1055       C  0.86882700  0.30574848  0.36920132    -0.18500
C1056       C  0.88246564  0.28621825  0.37374633    -0.23300
C1057       C  0.88323784  0.24899841  0.37089979     0.27100
C1058       C  0.89346095  0.22921926  0.38179728    -0.20100
C1059       C  0.89413567  0.19399956  0.37997479    -0.09700
C1060       C  0.88478930  0.17774847  0.36700742    -0.10300
C1061       C  0.87512769  0.19770654  0.35563746    -0.03200
C1062       C  0.87433703  0.23294919  0.35755987    -0.18300
H1063       H  0.84772661  0.41282430  0.35631672     0.10800
H1064       H  0.84853573  0.35113822  0.35297401     0.10800
H1065       H  0.88639709  0.34467828  0.39324111     0.10500
H1066       H  0.88589311  0.40573529  0.39624543     0.11600
H1067       H  0.85787918  0.29429397  0.36268150     0.11700
H1068       H  0.89345125  0.29747620  0.38026079     0.13600
H1069       H  0.90061512  0.24099271  0.39204721     0.10100
H1070       H  0.90173375  0.17945282  0.38893815     0.12200
H1071       H  0.86780280  0.18603293  0.34548557     0.08800
H1072       H  0.86680728  0.24744876  0.34854906     0.11600
C1073       C  0.94348619  0.02677740  0.37177636    -0.03000
C1074       C  0.95494679  0.04990129  0.37945156    -0.05600
C1075       C  0.97283513  0.04314560  0.38005328    -0.20700
C1076       C  0.97954586  0.01288320  0.37334004     0.25000
C1077       C  0.96810653  0.98983571  0.36559866    -0.18300
C1078       C  0.95029691  0.99675947  0.36479457    -0.08200
C1079       C  0.99858579  0.00668467  0.37385013    -0.18500
C1080       C  0.00552344  0.97538027  0.37473118    -0.23300
C1081       C  0.02458637  0.96936564  0.37471986     0.27100
C1082       C  0.03136620  0.94144087  0.38352493    -0.20100
C1083       C  0.04933426  0.93536303  0.38374474    -0.09700
C1084       C  0.06081938  0.95681465  0.37488142    -0.10300
C1085       C  0.05391067  0.98419465  0.36566376    -0.03200
C1086       C  0.03601854  0.99043228  0.36559890    -0.18300
H1087       H  0.95011429  0.07329885  0.38487958     0.10800
H1088       H  0.98144537  0.06145310  0.38591294     0.10800
H1089       H  0.97291310  0.96674201  0.35985309     0.10500
H1090       H  0.94183756  0.97842488  0.35876267     0.11600
H1091       H  0.00710696  0.02867383  0.37415908     0.11700
H1092       H  0.99702967  0.95354685  0.37624186     0.13600
H1093       H  0.02275757  0.92459764  0.39045384     0.10100
H1094       H  0.05421855  0.91391326  0.39084795     0.12200
H1095       H  0.06234511  0.00103901  0.35854525     0.08800
H1096       H  0.03115100  0.01149703  0.35820982     0.11600
C1097       C  0.87726904  0.02125948  0.30308936    -0.03000
C1098       C  0.88355511  0.98919618  0.29820753    -0.05600
C1099       C  0.88253920  0.97849012  0.28137134    -0.20700
C1100       C  0.87547813  0.99967269  0.26891034     0.25000
C1101       C  0.86909889  0.03175522  0.27371839    -0.18300
C1102       C  0.86997407  0.04240316  0.29064999    -0.08200
C1103       C  0.87468470  0.98706803  0.25116665    -0.18500
C1104       C  0.87519386  0.00775309  0.23761128    -0.23300
C1105       C  0.87548697  0.99544662  0.21979707     0.27100
C1106       C  0.88272372  0.01654399  0.20732725    -0.20100
C1107       C  0.88297626  0.00660281  0.19035400    -0.09700
C1108       C  0.87575078  0.97541018  0.18535070    -0.10300
C1109       C  0.86843617  0.95419683  0.19781132    -0.03200
C1110       C  0.86831981  0.96406753  0.21488354    -0.18300
H1111       H  0.88909921  0.97205654  0.30745247     0.10800
H1112       H  0.88741734  0.95359404  0.27804446     0.10800
H1113       H  0.86310891  0.04840211  0.26453178     0.10500
H1114       H  0.86483422  0.06706070  0.29401164     0.11600
H1115       H  0.87497287  0.95981859  0.24927916     0.11700
H1116       H  0.87660719  0.03485251  0.23957937     0.13600
H1117       H  0.88823625  0.04088603  0.21073585     0.10100
H1118       H  0.88860925  0.02372326  0.18110038     0.12200
H1119       H  0.86266132  0.93012676  0.19435551     0.08800
H1120       H  0.86223093  0.94746725  0.22407469     0.11600
C1121       C  0.81022105  0.58034595  0.38000100    -0.03000
C1122       C  0.80500628  0.60188648  0.39329304    -0.05600
C1123       C  0.78850774  0.61680428  0.39329384    -0.20700
C1124       C  0.77691246  0.61103917  0.37990690     0.25000
C1125       C  0.78188376  0.58865420  0.36684302    -0.18300
C1126       C  0.79836920  0.57345319  0.36691539    -0.08200
C1127       C  0.75969686  0.62832734  0.38023648    -0.18500
C1128       C  0.75051917  0.63549314  0.36615293    -0.23300
C1129       C  0.73314846  0.65224755  0.36630499     0.27100
C1130       C  0.72221907  0.64761064  0.35228447    -0.20100
C1131       C  0.70552590  0.66165139  0.35202903    -0.09700
C1132       C  0.69940238  0.68114768  0.36572947    -0.10300
C1133       C  0.71057729  0.68698551  0.37950313    -0.03200
C1134       C  0.72728006  0.67269280  0.37981198    -0.18300
H1135       H  0.81377920  0.60761923  0.40362901     0.10800
H1136       H  0.78493619  0.63355241  0.40361696     0.10800
H1137       H  0.77308538  0.58260528  0.35660385     0.10500
H1138       H  0.80197689  0.55694116  0.35652008     0.11600
H1139       H  0.75470629  0.63588473  0.39254529     0.11700
H1140       H  0.75566575  0.62803489  0.35388071     0.13600
H1141       H  0.72645746  0.63234489  0.34162749     0.10100
H1142       H  0.69730170  0.65674498  0.34117342     0.12200
H1143       H  0.70626572  0.70191304  0.39024165     0.08800
H1144       H  0.73548979  0.67787517  0.39061255     0.11600
C1145       C  0.62514847  0.07941433  0.37084435    -0.03000
C1146       C  0.61561655  0.06288199  0.38366765    -0.05600
C1147       C  0.61649599  0.02766681  0.38545430    -0.20700
C1148       C  0.62715585  0.00834393  0.37469709     0.25000
C1149       C  0.63643213  0.02473036  0.36166420    -0.18300
C1150       C  0.63540464  0.05987796  0.35974514    -0.08200
C1151       C  0.62753119  0.97101431  0.37672450    -0.18500
C1152       C  0.64129368  0.95175928  0.37226636    -0.23300
C1153       C  0.64077253  0.91418229  0.37273518     0.27100
C1154       C  0.65625960  0.89570751  0.37485838    -0.20100
C1155       C  0.65605557  0.86016987  0.37458731    -0.09700
C1156       C  0.64038865  0.84266168  0.37177409    -0.10300
C1157       C  0.62496669  0.86125581  0.36953274    -0.03200
C1158       C  0.62513440  0.89652454  0.37002509    -0.18300
H1159       H  0.60758743  0.07717537  0.39242215     0.10800
H1160       H  0.60902075  0.01551568  0.39542641     0.10800
H1161       H  0.64430897  0.01044806  0.35278865     0.10500
H1162       H  0.64292056  0.07180165  0.34974661     0.11600
H1163       H  0.61615316  0.95913917  0.38240485     0.11700
H1164       H  0.65335841  0.96378781  0.36827028     0.13600
H1165       H  0.66850713  0.90880667  0.37674713     0.10100
H1166       H  0.66814127  0.84645215  0.37626645     0.12200
H1167       H  0.61267075  0.84850548  0.36737052     0.08800
H1168       H  0.61304445  0.90984275  0.36778798     0.11600
C1169       C  0.62968894  0.57965282  0.37053778    -0.03000
C1170       C  0.62162715  0.56220695  0.38399030    -0.05600
C1171       C  0.62422171  0.52733889  0.38611083    -0.20700
C1172       C  0.63481227  0.50910101  0.37480006     0.25000
C1173       C  0.64287055  0.52655351  0.36133051    -0.18300
C1174       C  0.64025016  0.56131544  0.35918389    -0.08200
C1175       C  0.63733999  0.47210045  0.37751231    -0.18500
C1176       C  0.64115267  0.45061937  0.36477817    -0.23300
C1177       C  0.64182547  0.41328183  0.36684154     0.27100
C1178       C  0.63687386  0.39312705  0.35305892    -0.20100
C1179       C  0.63644337  0.35794728  0.35450942    -0.09700
C1180       C  0.64143406  0.34201817  0.36964074    -0.10300
C1181       C  0.64718924  0.36193056  0.38326876    -0.03200
C1182       C  0.64723106  0.39742735  0.38194711    -0.18300
H1183       H  0.61357118  0.57558590  0.39307559     0.10800
H1184       H  0.61793436  0.51455628  0.39663748     0.10800
H1185       H  0.65158308  0.51373153  0.35265124     0.10500
H1186       H  0.64694077  0.57398712  0.34886086     0.11600
H1187       H  0.63466737  0.46198766  0.39006337     0.11700
H1188       H  0.64209864  0.46026724  0.35192268     0.13600
H1189       H  0.63283574  0.40469696  0.34125024     0.10100
H1190       H  0.63209451  0.34308492  0.34377622     0.12200
H1191       H  0.65109313  0.35012198  0.39505304     0.08800
H1192       H  0.65151841  0.41233447  0.39266727     0.11600
C1193       C  0.81159650  0.08703254  0.36558540    -0.03000
C1194       C  0.80858870  0.11688001  0.35624390    -0.05600
C1195       C  0.79262859  0.13368139  0.35725230    -0.20700
C1196       C  0.77911085  0.12083483  0.36733488     0.25000
C1197       C  0.78194564  0.09084956  0.37662911    -0.18300
C1198       C  0.79807714  0.07419655  0.37581636    -0.08200
C1199       C  0.76238872  0.13974532  0.36802383    -0.18500
C1200       C  0.74688567  0.12421519  0.36965623    -0.23300
C1201       C  0.72999098  0.14241505  0.36853317     0.27100
C1202       C  0.71563515  0.12502596  0.36192156    -0.20100
C1203       C  0.69938654  0.14066956  0.36090571    -0.09700
C1204       C  0.69694419  0.17395037  0.36686459    -0.10300
C1205       C  0.71129828  0.19148694  0.37357684    -0.03200
C1206       C  0.72773909  0.17595958  0.37427822    -0.18300
H1207       H  0.81872075  0.12780281  0.34836771     0.10800
H1208       H  0.79080140  0.15676804  0.35003312     0.10800
H1209       H  0.77188051  0.08069236  0.38482386     0.10500
H1210       H  0.80002528  0.05155575  0.38333526     0.11600
H1211       H  0.76277633  0.16683123  0.36556524     0.11700
H1212       H  0.74646496  0.09672380  0.37036710     0.13600
H1213       H  0.71700152  0.09916824  0.35748785     0.10100
H1214       H  0.68857594  0.12622195  0.35586376     0.12200
H1215       H  0.70978550  0.21703534  0.37837176     0.08800
H1216       H  0.73850742  0.18984936  0.37974007     0.11600
C1217       C  0.80682715  0.92106876  0.12315835    -0.03000
C1218       C  0.80270199  0.89243938  0.13306258    -0.05600
C1219       C  0.78633068  0.87727588  0.13205899    -0.20700
C1220       C  0.77350889  0.89067622  0.12143986     0.25000
C1221       C  0.77735521  0.91975089  0.11175984    -0.18300
C1222       C  0.79392695  0.93470472  0.11254146    -0.08200
C1223       C  0.75647182  0.87306914  0.12051170    -0.18500
C1224       C  0.74135779  0.88971581  0.11869717    -0.23300
C1225       C  0.72426791  0.87240450  0.11997672     0.27100
C1226       C  0.71055070  0.88926307  0.12807986    -0.20100
C1227       C  0.69427607  0.87386761  0.12967357    -0.09700
C1228       C  0.69118792  0.84150929  0.12279511    -0.10300
C1229       C  0.70486413  0.82469628  0.11443593    -0.03200
C1230       C  0.72135132  0.83988430  0.11318435    -0.18300
H1231       H  0.81230589  0.88100996  0.14129765     0.10800
H1232       H  0.78366736  0.85492213  0.13962440     0.10800
H1233       H  0.76776752  0.93031259  0.10323213     0.10500
H1234       H  0.79672787  0.95649472  0.10463682     0.11600
H1235       H  0.75622890  0.84598290  0.12302679     0.11700
H1236       H  0.74143275  0.91722560  0.11802184     0.13600
H1237       H  0.71248296  0.91435191  0.13333886     0.10100
H1238       H  0.68394992  0.88777668  0.13595649     0.12200
H1239       H  0.70280511  0.79993004  0.10887157     0.08800
H1240       H  0.73167517  0.82656136  0.10660423     0.11600
C1241       C  0.62176281  0.78857661  0.18830304    -0.03000
C1242       C  0.60722012  0.77130433  0.19490057    -0.05600
C1243       C  0.60602008  0.76415455  0.21220932    -0.20700
C1244       C  0.61951055  0.77329587  0.22322851     0.25000
C1245       C  0.63400031  0.79096497  0.21672053    -0.18300
C1246       C  0.63505161  0.79872500  0.19941844    -0.08200
C1247       C  0.61791566  0.76446494  0.24144595    -0.18500
C1248       C  0.63173149  0.75619739  0.25104276    -0.23300
C1249       C  0.63018363  0.74575110  0.26907396     0.27100
C1250       C  0.64288710  0.72424979  0.27593772    -0.20100
C1251       C  0.64227807  0.71495777  0.29303708    -0.09700
C1252       C  0.62912495  0.72759572  0.30372483    -0.10300
C1253       C  0.61631154  0.74892912  0.29683051    -0.03200
C1254       C  0.61679082  0.75785272  0.27967681    -0.18300
H1255       H  0.59671001  0.76340845  0.18667186     0.10800
H1256       H  0.59466259  0.75082430  0.21696167     0.10800
H1257       H  0.64441957  0.79909791  0.22499290     0.10500
H1258       H  0.64639087  0.81212238  0.19468956     0.11600
H1259       H  0.60487035  0.76218743  0.24669207     0.11700
H1260       H  0.64457153  0.75512357  0.24523298     0.13600
H1261       H  0.65338230  0.71475301  0.26805272     0.10100
H1262       H  0.65243592  0.69876611  0.29800662     0.12200
H1263       H  0.60606060  0.75920809  0.30477019     0.08800
H1264       H  0.60700558  0.77510021  0.27492596     0.11600
C1265       C  0.62157501  0.43658552  0.12187752    -0.03000
C1266       C  0.60975459  0.45338107  0.11122665    -0.05600
C1267       C  0.61037053  0.48867777  0.10943950    -0.20700
C1268       C  0.62305841  0.50788411  0.11790849     0.25000
C1269       C  0.63491724  0.49113064  0.12855111    -0.18300
C1270       C  0.63411882  0.45590660  0.13056887    -0.08200
C1271       C  0.62272724  0.54543941  0.11638111    -0.18500
C1272       C  0.63688686  0.56538612  0.11821206    -0.23300
C1273       C  0.63575809  0.60304202  0.11816557     0.27100
C1274       C  0.64987587  0.62262032  0.11234144    -0.20100
C1275       C  0.64908734  0.65818195  0.11263108    -0.09700
C1276       C  0.63428250  0.67476386  0.11910757    -0.10300
C1277       C  0.62032375  0.65500413  0.12518290    -0.16000
C1278       C  0.62103299  0.61969015  0.12470146    -0.18300
H1279       H  0.59996403  0.43925595  0.10434136     0.10800
H1280       H  0.60095127  0.50103594  0.10132817     0.10800
H1281       H  0.64456349  0.50521241  0.13563039     0.10500
H1282       H  0.64350003  0.44373782  0.13878675     0.11600
H1283       H  0.61029563  0.55703236  0.11333862     0.11700
H1284       H  0.64967263  0.55394511  0.11951690     0.13600
H1285       H  0.66146872  0.61036477  0.10744786     0.10100
H1286       H  0.66009183  0.67264800  0.10794594     0.12200
H1287       H  0.60873194  0.66682893  0.13033328     0.08800
H1288       H  0.61015138  0.60548550  0.12981814     0.11600
C1289       C  0.62249488  0.93831162  0.12419224    -0.03000
C1290       C  0.61510657  0.95637048  0.11063766    -0.05600
C1291       C  0.61847559  0.99098684  0.10857638    -0.20700
C1292       C  0.62918864  0.00837552  0.12004344     0.25000
C1293       C  0.63638325  0.99040107  0.13375272    -0.18300
C1294       C  0.63297027  0.95588053  0.13584865    -0.08200
C1295       C  0.63276424  0.04500160  0.11717511    -0.18500
C1296       C  0.63734186  0.06620500  0.12974498    -0.23300
C1297       C  0.63870488  0.10337747  0.12752821     0.27100
C1298       C  0.63384362  0.12393751  0.14119279    -0.20100
C1299       C  0.63370096  0.15902745  0.13952540    -0.09700
C1300       C  0.63882807  0.17447077  0.12426580    -0.10300
C1301       C  0.64466379  0.15414464  0.11079499    -0.03200
C1302       C  0.64445553  0.11868159  0.11235531    -0.18300
H1303       H  0.60712391  0.94357848  0.10132788     0.10800
H1304       H  0.61279752  0.00418064  0.09789590     0.10800
H1305       H  0.64512424  0.00247663  0.14261308     0.10500
H1306       H  0.63911568  0.94270014  0.14628049     0.11600
H1307       H  0.63024642  0.05525493  0.10464111     0.11700
H1308       H  0.63818799  0.05674322  0.14262475     0.13600
H1309       H  0.62954248  0.11276555  0.15304079     0.10100
H1310       H  0.62930052  0.17419863  0.15015677     0.12200
H1311       H  0.64868927  0.16557299  0.09892472     0.08800
H1312       H  0.64868619  0.10335039  0.10173727     0.11600
C1313       C  0.69290159  0.34108517  0.12495031    -0.03000
C1314       C  0.69682695  0.37023984  0.13449767    -0.05600
C1315       C  0.71335515  0.38489047  0.13374915    -0.20700
C1316       C  0.72647138  0.37048420  0.12371175     0.25000
C1317       C  0.72267615  0.34123500  0.11418056    -0.18300
C1318       C  0.70601120  0.32674492  0.11475652    -0.08200
C1319       C  0.74383050  0.38699211  0.12332650    -0.18500
C1320       C  0.75869846  0.36946957  0.12139315    -0.23300
C1321       C  0.77610254  0.38543612  0.12290551     0.27100
C1322       C  0.78968656  0.36642653  0.12990470    -0.20100
C1323       C  0.80623213  0.38054332  0.13176924    -0.09700
C1324       C  0.80968519  0.41381015  0.12628915    -0.10300
C1325       C  0.79616517  0.43273604  0.11895962    -0.03200
C1326       C  0.77945756  0.41876544  0.11739309    -0.18300
H1327       H  0.68701461  0.38222708  0.14235519     0.10800
H1328       H  0.71594072  0.40748164  0.14113859     0.10800
H1329       H  0.73242156  0.32996558  0.10600254     0.10500
H1330       H  0.70335548  0.30453681  0.10712421     0.11600
H1331       H  0.74445980  0.41388645  0.12623364     0.11700
H1332       H  0.75817466  0.34204525  0.12027462     0.13600
H1333       H  0.78743456  0.34064745  0.13412562     0.10100
H1334       H  0.81643605  0.36509540  0.13722288     0.12200
H1335       H  0.79850174  0.45829361  0.11447552     0.08800
H1336       H  0.76929971  0.43378426  0.11159450     0.11600
C1337       C  0.62640861  0.28346969  0.18845716    -0.03000
C1338       C  0.62070903  0.25085714  0.19318383    -0.05600
C1339       C  0.62184513  0.23993098  0.20994732    -0.20700
C1340       C  0.62842422  0.26140585  0.22250956     0.25000
C1341       C  0.63405417  0.29418087  0.21791960    -0.18300
C1342       C  0.63310755  0.30505471  0.20101334    -0.08200
C1343       C  0.62960576  0.24824457  0.24010057    -0.18500
C1344       C  0.62845547  0.26823256  0.25383718    -0.23300
C1345       C  0.62820162  0.25473624  0.27139636     0.27100
C1346       C  0.61900383  0.27279144  0.28378739    -0.20100
C1347       C  0.61863420  0.26155880  0.30053800    -0.09700
C1348       C  0.62771657  0.23216519  0.30541730    -0.10300
C1349       C  0.63695856  0.21393750  0.29300175    -0.03200
C1350       C  0.63718315  0.22508224  0.27611787    -0.18300
H1351       H  0.61564189  0.23334412  0.18384640     0.10800
H1352       H  0.61751119  0.21455464  0.21312433     0.10800
H1353       H  0.63958785  0.31112763  0.22724428     0.10500
H1354       H  0.63775604  0.33015084  0.19775273     0.11600
H1355       H  0.63007623  0.22092556  0.24175855     0.11700
H1356       H  0.62621838  0.29521131  0.25219756     0.13600
H1357       H  0.61203321  0.29572119  0.28048618     0.10100
H1358       H  0.61144677  0.27640523  0.30974103     0.12200
H1359       H  0.64424983  0.19145359  0.29637668     0.08800
H1360       H  0.64474679  0.21098878  0.26691841     0.11600
C1361       C  0.19407710  0.90425282  0.37533914    -0.03000
C1362       C  0.19719870  0.87172022  0.36863307    -0.05600
C1363       C  0.21349224  0.85636236  0.37015004    -0.20700
C1364       C  0.22729299  0.87327438  0.37805661     0.25000
C1365       C  0.22431587  0.90586087  0.38481697    -0.18300
C1366       C  0.20779985  0.92108877  0.38358820    -0.08200
C1367       C  0.24444397  0.85575752  0.37914663    -0.18500
C1368       C  0.25976935  0.87226703  0.37824162    -0.23300
C1369       C  0.27695563  0.85475396  0.37722461     0.27100
C1370       C  0.29064342  0.87104896  0.36869525    -0.20100
C1371       C  0.30709549  0.85608334  0.36757525    -0.09700
C1372       C  0.31047255  0.82455832  0.37525664    -0.10300
C1373       C  0.29678171  0.80814002  0.38388742    -0.03200
C1374       C  0.28015242  0.82298029  0.38478741    -0.18300
H1375       H  0.18690712  0.85768389  0.36241808     0.10800
H1376       H  0.21537497  0.83121657  0.36493904     0.10800
H1377       H  0.23461171  0.91929544  0.39132050     0.10500
H1378       H  0.20577782  0.94595606  0.38905319     0.11600
H1379       H  0.24438970  0.82823177  0.37899769     0.11700
H1380       H  0.25969450  0.89963026  0.37669749     0.13600
H1381       H  0.28859185  0.89553539  0.36281085     0.10100
H1382       H  0.31731311  0.86971956  0.36096664     0.12200
H1383       H  0.29895883  0.78400590  0.39006580     0.08800
H1384       H  0.26999159  0.80996925  0.39176315     0.11600
C1385       C  0.44344714  0.76127408  0.38225134    -0.03000
C1386       C  0.44934691  0.73002796  0.37583195    -0.05600
C1387       C  0.46702323  0.72165223  0.37619462    -0.20700
C1388       C  0.47931131  0.74451242  0.38264080     0.25000
C1389       C  0.47347563  0.77563634  0.38929580    -0.18300
C1390       C  0.45569175  0.78383771  0.38918589    -0.08200
C1391       C  0.49802282  0.73478321  0.38240520    -0.18500
C1392       C  0.51098384  0.75738258  0.38019980    -0.23300
C1393       C  0.52960511  0.74745185  0.37849700     0.27100
C1394       C  0.54070346  0.76777911  0.36866212    -0.20100
C1395       C  0.55831418  0.75956333  0.36681683    -0.09700
C1396       C  0.56537566  0.73101386  0.37500464    -0.10300
C1397       C  0.55429185  0.71077293  0.38501059    -0.03200
C1398       C  0.53657835  0.71884535  0.38671519    -0.18300
H1399       H  0.44027242  0.71189976  0.37052876     0.10800
H1400       H  0.47115864  0.69742346  0.37112691     0.10800
H1401       H  0.48259022  0.79347742  0.39474658     0.10500
H1402       H  0.45156076  0.80800075  0.39431004     0.11600
H1403       H  0.50107373  0.70790816  0.38259722     0.11700
H1404       H  0.50774730  0.78390293  0.37825915     0.13600
H1405       H  0.53569705  0.79003891  0.36227751     0.10100
H1406       H  0.56644817  0.77592203  0.35910682     0.12200
H1407       H  0.55932550  0.68884978  0.39163452     0.08800
H1408       H  0.52848045  0.70308760  0.39474846     0.11600
C1409       C  0.36548265  0.65688671  0.37394892    -0.03000
C1410       C  0.37284995  0.64056126  0.35979389    -0.05600
C1411       C  0.37335892  0.60529570  0.35884262    -0.20700
C1412       C  0.36682464  0.58544661  0.37213582     0.25000
C1413       C  0.35864962  0.60162895  0.38597373    -0.18300
C1414       C  0.35792628  0.63712199  0.38682504    -0.08200
C1415       C  0.36905519  0.54811940  0.37109369    -0.18500
C1416       C  0.37075571  0.52823047  0.38484264    -0.23300
C1417       C  0.37378236  0.49107682  0.38392190     0.27100
C1418       C  0.36860834  0.47108524  0.39772054    -0.20100
C1419       C  0.37068862  0.43598021  0.39732201    -0.09700
C1420       C  0.37819594  0.41992758  0.38313993    -0.10300
C1421       C  0.38408283  0.44003266  0.36957462    -0.03200
C1422       C  0.38191107  0.47529958  0.36994818    -0.18300
H1423       H  0.37860161  0.65512854  0.34956087     0.10800
H1424       H  0.37947857  0.59348656  0.34794731     0.10800
H1425       H  0.35292266  0.58703044  0.39618238     0.10500
H1426       H  0.35210149  0.64905434  0.39782712     0.11600
H1427       H  0.37020326  0.53710441  0.35853470     0.11700
H1428       H  0.36963636  0.53936517  0.39738229     0.13600
H1429       H  0.36254816  0.48260740  0.40872389     0.10100
H1430       H  0.36608941  0.42135452  0.40806267     0.12200
H1431       H  0.39001260  0.42847842  0.35852369     0.08800
H1432       H  0.38667625  0.49000347  0.35932832     0.11600
C1433       C  0.36942566  0.15594673  0.38125522    -0.03000
C1434       C  0.38012402  0.13711517  0.39219227    -0.05600
C1435       C  0.38095134  0.10185199  0.39099097    -0.20700
C1436       C  0.37122540  0.08449284  0.37863695     0.25000
C1437       C  0.36014445  0.10325443  0.36803579    -0.18300
C1438       C  0.35924132  0.13860125  0.36930971    -0.08200
C1439       C  0.37201869  0.04701273  0.37651717    -0.18500
C1440       C  0.38483361  0.02730059  0.38279985    -0.23300
C1441       C  0.38527848  0.98989996  0.38064468     0.27100
C1442       C  0.39383542  0.97008688  0.39283106    -0.20100
C1443       C  0.39404912  0.93471329  0.39151444    -0.09700
C1444       C  0.38585228  0.91843563  0.37783890    -0.10300
C1445       C  0.37789072  0.93842049  0.36529009    -0.03200
C1446       C  0.37763170  0.97371700  0.36664365    -0.18300
H1447       H  0.38799576  0.14967321  0.40167660     0.10800
H1448       H  0.38916008  0.08857422  0.39987585     0.10800
H1449       H  0.35237003  0.09055912  0.35851858     0.10500
H1450       H  0.35091059  0.15237465  0.36066354     0.11600
H1451       H  0.36157927  0.03534833  0.36933705     0.11700
H1452       H  0.39525156  0.03843027  0.39017104     0.13600
H1453       H  0.40001885  0.98198362  0.40362840     0.10100
H1454       H  0.40031161  0.92012643  0.40139340     0.12200
H1455       H  0.37158468  0.92678027  0.35449831     0.08800
H1456       H  0.37151349  0.98814959  0.35664602     0.11600
C1457       C  0.30838194  0.31882847  0.38076966    -0.03000
C1458       C  0.30329585  0.34630690  0.39103849    -0.05600
C1459       C  0.28700607  0.36147445  0.38904772    -0.20700
C1460       C  0.27523207  0.34935773  0.37694461     0.25000
C1461       C  0.28007548  0.32142631  0.36685626    -0.18300
C1462       C  0.29650611  0.30635174  0.36874665    -0.08200
C1463       C  0.25834231  0.36731215  0.37489759    -0.18500
C1464       C  0.24370001  0.35197748  0.36957444    -0.23300
C1465       C  0.22656553  0.36942271  0.36930788     0.27100
C1466       C  0.21159919  0.35064317  0.37322098    -0.20100
C1467       C  0.19529108  0.36621465  0.37368766    -0.09700
C1468       C  0.19347517  0.40085489  0.36982889    -0.10300
C1469       C  0.20838104  0.41954184  0.36533631    -0.03200
C1470       C  0.22483365  0.40403270  0.36522578    -0.18300
H1471       H  0.31208962  0.35677966  0.40038103     0.10800
H1472       H  0.28361926  0.38294259  0.39696225     0.10800
H1473       H  0.27145776  0.31186299  0.35714130     0.10500
H1474       H  0.30007102  0.28553267  0.36049867     0.11600
H1475       H  0.25764764  0.39345083  0.37918709     0.11700
H1476       H  0.24387623  0.32497280  0.36691586     0.13600
H1477       H  0.21257004  0.32392214  0.37625101     0.10100
H1478       H  0.18402221  0.35094202  0.37691175     0.12200
H1479       H  0.20734155  0.44615230  0.36212730     0.08800
H1480       H  0.23612690  0.41898517  0.36176316     0.11600
C1481       C  0.56396015  0.22599711  0.37556588    -0.03000
C1482       C  0.55353835  0.20410519  0.38533763    -0.05600
C1483       C  0.53545908  0.20852561  0.38610021    -0.20700
C1484       C  0.52729582  0.23496319  0.37719698     0.25000
C1485       C  0.53775428  0.25666059  0.36724383    -0.18300
C1486       C  0.55582256  0.25220486  0.36647601    -0.08200
C1487       C  0.50796256  0.23860240  0.37873659    -0.18500
C1488       C  0.49865335  0.26480981  0.37248330    -0.23300
C1489       C  0.47940325  0.26833266  0.37445708     0.27100
C1490       C  0.47042441  0.28997844  0.36336689    -0.20100
C1491       C  0.45240426  0.29455896  0.36486454    -0.09700
C1492       C  0.44289991  0.27766359  0.37757196    -0.10300
C1493       C  0.45190822  0.25635035  0.38883965    -0.03200
C1494       C  0.46993373  0.25183932  0.38736897    -0.18300
H1495       H  0.55934078  0.18353609  0.39243452     0.10800
H1496       H  0.52781807  0.19126253  0.39380351     0.10800
H1497       H  0.53224797  0.27704811  0.35989467     0.10500
H1498       H  0.56343194  0.26944437  0.35873850     0.11600
H1499       H  0.50117731  0.21849879  0.38541755     0.11700
H1500       H  0.50512740  0.28462574  0.36536956     0.13600
H1501       H  0.47737241  0.30325450  0.35339990     0.10100
H1502       H  0.44590446  0.31111822  0.35595349     0.12200
H1503       H  0.44503297  0.24316826  0.39887899     0.08800
H1504       H  0.47633584  0.23588121  0.39657651     0.11600
C1505       C  0.19626763  0.57024019  0.12052332    -0.03000
C1506       C  0.20262180  0.58923759  0.10673643    -0.05600
C1507       C  0.21952219  0.60227021  0.10684403    -0.20700
C1508       C  0.23042735  0.59715399  0.12081659     0.25000
C1509       C  0.22429630  0.57732616  0.13446670    -0.18300
C1510       C  0.20737048  0.56395727  0.13428949    -0.08200
C1511       C  0.24809742  0.61260676  0.12043722    -0.18500
C1512       C  0.25718510  0.62041838  0.13446772    -0.23300
C1513       C  0.27480278  0.63609601  0.13405894     0.27100
C1514       C  0.28577009  0.63110522  0.14799314    -0.20100
C1515       C  0.30262172  0.64436796  0.14804787    -0.09700
C1516       C  0.30888355  0.66339362  0.13422069    -0.10300
C1517       C  0.29769642  0.66959452  0.12051189    -0.03200
C1518       C  0.28080670  0.65607599  0.12041137    -0.18300
H1519       H  0.19444966  0.59436820  0.09587146     0.10800
H1520       H  0.22396797  0.61707238  0.09609389     0.10800
H1521       H  0.23250565  0.57185550  0.14523555     0.10500
H1522       H  0.20285323  0.54936629  0.14507552     0.11600
H1523       H  0.25352272  0.61851896  0.10806606     0.11700
H1524       H  0.25177787  0.61447821  0.14684301     0.13600
H1525       H  0.28142132  0.61619138  0.15874120     0.10100
H1526       H  0.31085798  0.63920703  0.15886401     0.12200
H1527       H  0.30212838  0.68416949  0.10968714     0.08800
H1528       H  0.27253560  0.66149544  0.10968242     0.11600
C1529       C  0.55854311  0.78749679  0.11927550    -0.03000
C1530       C  0.54678592  0.80955915  0.11125863    -0.05600
C1531       C  0.52893783  0.80200195  0.11095915    -0.20700
C1532       C  0.52259078  0.77205834  0.11840211     0.25000
C1533       C  0.53436198  0.75016946  0.12647085    -0.18300
C1534       C  0.55207940  0.75777179  0.12687380    -0.08200
C1535       C  0.50358783  0.76505921  0.11857493    -0.18500
C1536       C  0.49705636  0.73335442  0.11931714    -0.23300
C1537       C  0.47822985  0.72582881  0.12134249     0.27100
C1538       C  0.47172969  0.69455625  0.11567833    -0.20100
C1539       C  0.45415045  0.68619639  0.11792147    -0.09700
C1540       C  0.44280005  0.70874439  0.12618936    -0.10300
C1541       C  0.44943020  0.73974910  0.13218510    -0.03200
C1542       C  0.46692503  0.74824301  0.12976682    -0.18300
H1543       H  0.55134678  0.83270703  0.10533670     0.10800
H1544       H  0.52007449  0.81948897  0.10485802     0.10800
H1545       H  0.52990598  0.72749722  0.13287869     0.10500
H1546       H  0.56072059  0.74025266  0.13323773     0.11600
H1547       H  0.49481226  0.78658419  0.11791668     0.11700
H1548       H  0.50580129  0.71185173  0.11817451     0.13600
H1549       H  0.48026042  0.67665114  0.10937931     0.10100
H1550       H  0.44945729  0.66210327  0.11319776     0.12200
H1551       H  0.44104613  0.75771765  0.13861627     0.08800
H1552       H  0.47159926  0.77206283  0.13481246     0.11600
C1553       C  0.38230029  0.77691894  0.31148750    -0.03000
C1554       C  0.39701072  0.76004537  0.30502578    -0.05600
C1555       C  0.39816825  0.75198375  0.28784422    -0.20700
C1556       C  0.38449416  0.75986382  0.27681911     0.25000
C1557       C  0.36991600  0.77747779  0.28313100    -0.18300
C1558       C  0.36889546  0.78615789  0.30032816    -0.08200
C1559       C  0.38609386  0.74995628  0.25877196    -0.18500
C1560       C  0.37239398  0.74053048  0.24927520    -0.23300
C1561       C  0.37429564  0.72954036  0.23136260     0.27100
C1562       C  0.36236172  0.70627591  0.22458836    -0.20100
C1563       C  0.36361482  0.69611821  0.20762472    -0.09700
C1564       C  0.37666127  0.70956322  0.19701152    -0.10300
C1565       C  0.38859477  0.73286972  0.20382580    -0.03200
C1566       C  0.38744768  0.74273008  0.22079707    -0.18300
H1567       H  0.40759341  0.75276819  0.31330910     0.10800
H1568       H  0.40960365  0.73877456  0.28322175     0.10800
H1569       H  0.35937051  0.78466071  0.27480199     0.10500
H1570       H  0.35741124  0.79913884  0.30498274     0.11600
H1571       H  0.39916210  0.74797534  0.25355276     0.11700
H1572       H  0.35954075  0.73904661  0.25503987     0.13600
H1573       H  0.35203758  0.69595639  0.23244530     0.10100
H1574       H  0.35409289  0.67842681  0.20271322     0.12200
H1575       H  0.39869790  0.74393809  0.19596333     0.08800
H1576       H  0.39657677  0.76142324  0.22545128     0.11600
C1577       C  0.38119189  0.05833681  0.13655286    -0.03000
C1578       C  0.37598177  0.04058758  0.15116064    -0.05600
C1579       C  0.37465999  0.00533206  0.15097009    -0.20700
C1580       C  0.37817472  0.98704288  0.13612091     0.25000
C1581       C  0.38366316  0.00460055  0.12152916    -0.18300
C1582       C  0.38522859  0.03996252  0.12177843    -0.08200
C1583       C  0.37679277  0.94963071  0.13668912    -0.18500
C1584       C  0.37300436  0.93016104  0.12317274    -0.23300
C1585       C  0.37210297  0.89266473  0.12449195     0.27100
C1586       C  0.36071215  0.87422490  0.11406958    -0.20100
C1587       C  0.35975670  0.83878924  0.11529758    -0.09700
C1588       C  0.37039828  0.82125238  0.12681493    -0.10300
C1589       C  0.38192198  0.83986751  0.13704964    -0.03200
C1590       C  0.38282127  0.87501796  0.13585948    -0.18300
H1591       H  0.37277682  0.05397823  0.16273970     0.10800
H1592       H  0.37060748  0.99230485  0.16241864     0.10800
H1593       H  0.38692949  0.99110362  0.11000872     0.10500
H1594       H  0.38919423  0.05296158  0.11030197     0.11600
H1595       H  0.37813645  0.93780259  0.14904993     0.11700
H1596       H  0.36980304  0.94188674  0.11112435     0.13600
H1597       H  0.35246030  0.88728075  0.10507750     0.10100
H1598       H  0.35089209  0.82514377  0.10711262     0.12200
H1599       H  0.39046652  0.82725665  0.14593650     0.08800
H1600       H  0.39220165  0.88823041  0.14365883     0.11600
C1601       C  0.37875034  0.55744935  0.13276915    -0.03000
C1602       C  0.38700050  0.53938834  0.11963813    -0.05600
C1603       C  0.38446226  0.50442702  0.11793057    -0.20700
C1604       C  0.37378082  0.48671116  0.12937223     0.25000
C1605       C  0.36563559  0.50470304  0.14259294    -0.18300
C1606       C  0.36815374  0.53960099  0.14429804    -0.08200
C1607       C  0.37111100  0.44970415  0.12698919    -0.18500
C1608       C  0.36751878  0.42868676  0.13996591    -0.23300
C1609       C  0.36649698  0.39140017  0.13807062     0.27100
C1610       C  0.37243552  0.37126319  0.15145628    -0.20100
C1611       C  0.37242657  0.33608424  0.15008078    -0.09700
C1612       C  0.36609646  0.32011306  0.13540894    -0.10300
C1613       C  0.35940359  0.34013903  0.12223008    -0.03200
C1614       C  0.35973099  0.37562592  0.12348682    -0.18300
H1615       H  0.39510154  0.55236783  0.11043151     0.10800
H1616       H  0.39082527  0.49117941  0.10760187     0.10800
H1617       H  0.35689491  0.49216458  0.15136950     0.10500
H1618       H  0.36136041  0.55274161  0.15439357     0.11600
H1619       H  0.37340457  0.43918100  0.11445440     0.11700
H1620       H  0.36702704  0.43865835  0.15278222     0.13600
H1621       H  0.37754572  0.38283118  0.16286174     0.10100
H1622       H  0.37753064  0.32130724  0.16052035     0.12200
H1623       H  0.35444004  0.32843604  0.11080738     0.08800
H1624       H  0.35468124  0.39063367  0.11312226     0.11600
C1625       C  0.19318394  0.07414954  0.12866791    -0.03000
C1626       C  0.19701515  0.10430491  0.13746178    -0.05600
C1627       C  0.21345165  0.11927087  0.13633029    -0.20700
C1628       C  0.22671433  0.10418402  0.12675126     0.25000
C1629       C  0.22315327  0.07366922  0.11813487    -0.18300
C1630       C  0.20645111  0.05896596  0.11894089    -0.08200
C1631       C  0.24388365  0.12162752  0.12579153    -0.18500
C1632       C  0.25913001  0.10492704  0.12611866    -0.23300
C1633       C  0.27616664  0.12260500  0.12791329     0.27100
C1634       C  0.28896854  0.10777490  0.13809161    -0.20100
C1635       C  0.30516374  0.12335414  0.14017238    -0.09700
C1636       C  0.30921419  0.15390807  0.13177806    -0.10300
C1637       C  0.29641186  0.16876672  0.12143588    -0.03200
C1638       C  0.27997176  0.15341095  0.11963615    -0.18300
H1639       H  0.18713017  0.11699731  0.14494595     0.10800
H1640       H  0.21584595  0.14274909  0.14305975     0.10800
H1641       H  0.23310960  0.06170195  0.11045359     0.10500
H1642       H  0.20390233  0.03590463  0.11192949     0.11600
H1643       H  0.24397499  0.14910449  0.12676211     0.11700
H1644       H  0.25901581  0.07743766  0.12700496     0.13600
H1645       H  0.28637810  0.08408690  0.14458748     0.10100
H1646       H  0.31468714  0.11089794  0.14811689     0.12200
H1647       H  0.29913407  0.19206953  0.11466786     0.08800
H1648       H  0.27040676  0.16519219  0.11148883     0.11600
C1649       C  0.44276158  0.21041435  0.13040852    -0.03000
C1650       C  0.45416261  0.18812546  0.12199689    -0.05600
C1651       C  0.47193678  0.19573179  0.12055185    -0.20700
C1652       C  0.47868824  0.22604728  0.12716801     0.25000
C1653       C  0.46733924  0.24829514  0.13567597    -0.18300
C1654       C  0.44960693  0.24050685  0.13731266    -0.08200
C1655       C  0.49771811  0.23282860  0.12572513    -0.18500
C1656       C  0.50465816  0.26425835  0.12517792    -0.23300
C1657       C  0.52376602  0.27055797  0.12412379     0.27100
C1658       C  0.52999052  0.30015579  0.11623012    -0.20100
C1659       C  0.54791949  0.30689649  0.11531726    -0.09700
C1660       C  0.55997605  0.28441784  0.12258045    -0.10300
C1661       C  0.55366985  0.25507415  0.13071222    -0.03200
C1662       C  0.53582541  0.24820861  0.13146536    -0.18300
H1663       H  0.44936732  0.16471450  0.11657187     0.10800
H1664       H  0.48043425  0.17798071  0.11410040     0.10800
H1665       H  0.47216231  0.27141898  0.14136224     0.10500
H1666       H  0.44122729  0.25823849  0.14390831     0.11600
H1667       H  0.50622801  0.21102178  0.12434755     0.11700
H1668       H  0.49608652  0.28612130  0.12480621     0.13600
H1669       H  0.52095316  0.31797886  0.11064008     0.10100
H1670       H  0.55231884  0.32980602  0.10905872     0.12200
H1671       H  0.56254480  0.23726545  0.13655210     0.08800
H1672       H  0.53151254  0.22570956  0.13811993     0.11600
C1673       C  0.37491670  0.20546445  0.20029388    -0.03000
C1674       C  0.36303373  0.18841807  0.21088497    -0.05600
C1675       C  0.36204845  0.19607446  0.22819520    -0.20700
C1676       C  0.37282485  0.22103380  0.23536313     0.25000
C1677       C  0.38499174  0.23758997  0.22481785    -0.18300
C1678       C  0.38595444  0.22997224  0.20751405    -0.08200
C1679       C  0.37112850  0.22831776  0.25386801    -0.18500
C1680       C  0.37752005  0.25630366  0.26151126    -0.23300
C1681       C  0.37585761  0.26305862  0.28003054     0.27100
C1682       C  0.38797738  0.28470415  0.28779744    -0.20100
C1683       C  0.38703506  0.29150688  0.30519021    -0.09700
C1684       C  0.37382093  0.27700133  0.31522098    -0.10300
C1685       C  0.36141459  0.25600018  0.30736336    -0.03200
C1686       C  0.36236831  0.24918694  0.28997984    -0.18300
H1687       H  0.35432567  0.16941246  0.20577333     0.10800
H1688       H  0.35266055  0.18267376  0.23599224     0.10800
H1689       H  0.39396973  0.25618004  0.22976915     0.10500
H1690       H  0.39534941  0.24345352  0.19976869     0.11600
H1691       H  0.36419746  0.20967444  0.26142146     0.11700
H1692       H  0.38461608  0.27495920  0.25414573     0.13600
H1693       H  0.39839872  0.29599877  0.28041835     0.10100
H1694       H  0.39681204  0.30776291  0.31080659     0.12200
H1695       H  0.35095737  0.24463600  0.31466498     0.08800
H1696       H  0.35239196  0.23339540  0.28442013     0.11600
C1697       C  0.13270316  0.94655389  0.56103976    -0.03000
C1698       C  0.14490713  0.96789588  0.55303948    -0.05600
C1699       C  0.14585917  0.96972155  0.53534214    -0.20700
C1700       C  0.13479370  0.95005536  0.52517431     0.25000
C1701       C  0.12251085  0.92877897  0.53316205    -0.18300
C1702       C  0.12152333  0.92701755  0.55086725    -0.08200
C1703       C  0.13595290  0.95365214  0.50638391    -0.18500
C1704       C  0.13044916  0.92968636  0.49543818    -0.23300
C1705       C  0.13078509  0.93324033  0.47660500     0.27100
C1706       C  0.12062831  0.91078051  0.46700319    -0.20100
C1707       C  0.12025270  0.91294788  0.44933256    -0.09700
C1708       C  0.13021479  0.93745812  0.44071480    -0.10300
C1709       C  0.14063026  0.95968399  0.45024989    -0.03200
C1710       C  0.14092039  0.95766148  0.46799821    -0.18300
H1711       H  0.15368290  0.98342342  0.56044801     0.10800
H1712       H  0.15532374  0.98655151  0.52956098     0.10800
H1713       H  0.11332263  0.91403849  0.52586871     0.10500
H1714       H  0.11186983  0.91052354  0.55658189     0.11600
H1715       H  0.14161901  0.97693808  0.50159596     0.11700
H1716       H  0.12505950  0.90627800  0.50041716     0.13600
H1717       H  0.11280565  0.89154105  0.47321611     0.10100
H1718       H  0.11222088  0.89515229  0.44241265     0.12200
H1719       H  0.14855941  0.97868761  0.44399828     0.08800
H1720       H  0.14930230  0.97494928  0.47477438     0.11600
C1721       C  0.13026212  0.43960686  0.55428735    -0.03000
C1722       C  0.14563475  0.44946708  0.54589158    -0.05600
C1723       C  0.14667672  0.44849928  0.52819405    -0.20700
C1724       C  0.13230340  0.43829261  0.51851037     0.25000
C1725       C  0.11691423  0.42839058  0.52689374    -0.18300
C1726       C  0.11593058  0.42899666  0.54458521    -0.08200
C1727       C  0.13398247  0.43708064  0.49976829    -0.18500
C1728       C  0.12033764  0.44106722  0.48929255    -0.23300
C1729       C  0.12201141  0.44039254  0.47056461     0.27100
C1730       C  0.11023765  0.45926460  0.46085164    -0.20100
C1731       C  0.11131813  0.45919389  0.44318144    -0.09700
C1732       C  0.12402998  0.43970105  0.43481033    -0.10300
C1733       C  0.13562742  0.42022676  0.44452818    -0.03200
C1734       C  0.13466410  0.42061808  0.46224358    -0.18300
H1735       H  0.15693916  0.45755577  0.55300433     0.10800
H1736       H  0.15872075  0.45595808  0.52203389     0.10800
H1737       H  0.10573216  0.41945631  0.51987222     0.10500
H1738       H  0.10391406  0.42116622  0.55066774     0.11600
H1739       H  0.14699693  0.43459745  0.49447194     0.11700
H1740       H  0.10761310  0.44706112  0.49454088     0.13600
H1741       H  0.10027493  0.47441717  0.46697101     0.10100
H1742       H  0.10210207  0.47428906  0.43607538     0.12200
H1743       H  0.14549705  0.40479572  0.43845252     0.08800
H1744       H  0.14362500  0.40499984  0.46935747     0.11600
C1745       C  0.12273099  0.81165521  0.62874949    -0.03000
C1746       C  0.12651951  0.79390699  0.64372967    -0.05600
C1747       C  0.12777688  0.75864048  0.64366324    -0.20700
C1748       C  0.12558509  0.74029909  0.62859812     0.25000
C1749       C  0.12144975  0.75790557  0.61362314    -0.18300
C1750       C  0.11998878  0.79328413  0.61372642    -0.08200
C1751       C  0.12696510  0.70283595  0.62930015    -0.18500
C1752       C  0.13092589  0.68315453  0.61587411    -0.23300
C1753       C  0.13161762  0.64558052  0.61705994     0.27100
C1754       C  0.14200769  0.62712053  0.60563449    -0.20100
C1755       C  0.14247305  0.59160941  0.60629668    -0.09700
C1756       C  0.13233577  0.57397829  0.61827203    -0.10300
C1757       C  0.12193299  0.59256157  0.62964101    -0.03200
C1758       C  0.12150944  0.62781798  0.62900897    -0.18300
H1759       H  0.12863302  0.80731569  0.65552604     0.10800
H1760       H  0.13073220  0.74564912  0.65540871     0.10800
H1761       H  0.11915025  0.74450287  0.60187931     0.10500
H1762       H  0.11709175  0.80629659  0.60198214     0.11600
H1763       H  0.12536445  0.69121313  0.64168304     0.11700
H1764       H  0.13430389  0.69476666  0.60382547     0.13600
H1765       H  0.14976362  0.64021080  0.59618322     0.10100
H1766       H  0.15047506  0.57798516  0.59725519     0.12200
H1767       H  0.11385246  0.57983257  0.63895649     0.08800
H1768       H  0.11284297  0.64091569  0.63762992     0.11600
C1769       C  0.13485850  0.07423000  0.63008453    -0.03000
C1770       C  0.12852428  0.09034504  0.64472803    -0.05600
C1771       C  0.12759652  0.12557095  0.64554653    -0.20700
C1772       C  0.13260064  0.14541179  0.63162408     0.25000
C1773       C  0.13958565  0.12942079  0.61716432    -0.18300
C1774       C  0.14079096  0.09403157  0.61645310    -0.08200
C1775       C  0.13043562  0.18261749  0.63282698    -0.18500
C1776       C  0.12759128  0.20268485  0.61931199    -0.23300
C1777       C  0.12485350  0.23984494  0.62078426     0.27100
C1778       C  0.11628321  0.25716706  0.60768507    -0.20100
C1779       C  0.11412333  0.29237717  0.60839422    -0.09700
C1780       C  0.12063386  0.31095174  0.62220050    -0.10300
C1781       C  0.12897268  0.29347762  0.63540358    -0.03200
C1782       C  0.13117110  0.25846209  0.63466865    -0.18300
H1783       H  0.12402637  0.07562635  0.65548579     0.10800
H1784       H  0.12243966  0.13732693  0.65691499     0.10800
H1785       H  0.14408590  0.14410710  0.60642054     0.10500
H1786       H  0.14574591  0.08213696  0.60504603     0.11600
H1787       H  0.12985617  0.19326662  0.64549097     0.11700
H1788       H  0.12642518  0.19139998  0.60681404     0.13600
H1789       H  0.11139452  0.24345221  0.59679577     0.10100
H1790       H  0.10778970  0.30510736  0.59793299     0.12200
H1791       H  0.13431896  0.30697858  0.64614754     0.08800
H1792       H  0.13836108  0.24643443  0.64477042     0.11600
C1793       C  0.12339700  0.53380918  0.93511112    -0.03000
C1794       C  0.10800593  0.54261026  0.94375220    -0.05600
C1795       C  0.10716906  0.54109091  0.96143836    -0.20700
C1796       C  0.12177752  0.53149598  0.97091361     0.25000
C1797       C  0.13722281  0.52272144  0.96231967    -0.18300
C1798       C  0.13798778  0.52373446  0.94458917    -0.08200
C1799       C  0.12029590  0.53010427  0.98967614    -0.18500
C1800       C  0.13377169  0.53659725  0.00005105    -0.23300
C1801       C  0.13206941  0.53726976  0.01880946     0.27100
C1802       C  0.14303264  0.55869645  0.02812241    -0.20100
C1803       C  0.14194211  0.55992589  0.04579965    -0.09700
C1804       C  0.13003719  0.53925675  0.05460994    -0.10300
C1805       C  0.11916013  0.51747850  0.04528625    -0.03200
C1806       C  0.12013514  0.51652166  0.02756540    -0.18300
H1807       H  0.09649626  0.55021661  0.93683031     0.10800
H1808       H  0.09509668  0.54773768  0.96776165     0.10800
H1809       H  0.14860399  0.51442912  0.96923121     0.10500
H1810       H  0.15001484  0.51668443  0.93830193     0.11600
H1811       H  0.10741953  0.52605397  0.99505923     0.11700
H1812       H  0.14622163  0.54408107  0.99463205     0.13600
H1813       H  0.15239922  0.57476082  0.02167726     0.10100
H1814       H  0.15057934  0.57684912  0.05257085     0.12200
H1815       H  0.10992904  0.50105255  0.05168171     0.08800
H1816       H  0.11179399  0.49906129  0.02079878     0.11600
C1817       C  0.12582110  0.51600434  0.80276652    -0.03000
C1818       C  0.13953456  0.52816252  0.79258780    -0.05600
C1819       C  0.14064356  0.51909837  0.77543477    -0.20700
C1820       C  0.12789751  0.49832876  0.76801308     0.25000
C1821       C  0.11407230  0.48650211  0.77816702    -0.18300
C1822       C  0.11308442  0.49518583  0.79532577    -0.08200
C1823       C  0.12969704  0.48839738  0.74987755    -0.18500
C1824       C  0.11593304  0.48104486  0.73996779    -0.23300
C1825       C  0.11755891  0.47234328  0.72170341     0.27100
C1826       C  0.10417946  0.48195570  0.71064262    -0.20100
C1827       C  0.10532668  0.47483354  0.69331767    -0.09700
C1828       C  0.11970170  0.45711731  0.68671104    -0.10300
C1829       C  0.13283190  0.44636283  0.69787752    -0.03200
C1830       C  0.13184287  0.45410823  0.71520171    -0.18300
H1831       H  0.14963400  0.54398139  0.79797535     0.10800
H1832       H  0.15149415  0.52834870  0.76792707     0.10800
H1833       H  0.10424800  0.46974938  0.77304516     0.10500
H1834       H  0.10238462  0.48529038  0.80282663     0.11600
H1835       H  0.14265657  0.48895278  0.74430975     0.11700
H1836       H  0.10284880  0.48386959  0.74503861     0.13600
H1837       H  0.09295170  0.49566818  0.71537686     0.10100
H1838       H  0.09493991  0.48324325  0.68507245     0.12200
H1839       H  0.14405135  0.43261388  0.69316293     0.08800
H1840       H  0.14215339  0.44556310  0.72349052     0.11600
C1841       C  0.12709679  0.04618999  0.06181277    -0.03000
C1842       C  0.11621941  0.06902752  0.05318907    -0.05600
C1843       C  0.11547064  0.06906762  0.03549037    -0.20700
C1844       C  0.12544743  0.04619525  0.02589467     0.25000
C1845       C  0.13634213  0.02322532  0.03451473    -0.18300
C1846       C  0.13711422  0.02323564  0.05225697    -0.08200
C1847       C  0.12436258  0.04818404  0.00703843    -0.18500
C1848       C  0.13052666  0.02440595  0.99629852    -0.23300
C1849       C  0.12945758  0.02728751  0.97749433     0.27100
C1850       C  0.14117181  0.00853504  0.96753552    -0.20100
C1851       C  0.14064005  0.01031456  0.94984001    -0.09700
C1852       C  0.12824081  0.03073044  0.94163514    -0.10300
C1853       C  0.11633736  0.04915985  0.95158542    -0.03200
C1854       C  0.11688238  0.04739799  0.96929690    -0.18300
H1855       H  0.10829536  0.08705900  0.06010623     0.10800
H1856       H  0.10701087  0.08712867  0.02925762     0.10800
H1857       H  0.14455921  0.00556757  0.02775933     0.10500
H1858       H  0.14562384  0.00528339  0.05848488     0.11600
H1859       H  0.11819350  0.07062232  0.00187024     0.11700
H1860       H  0.13698246  0.00211894  0.00125085     0.13600
H1861       H  0.15088713  0.99261126  0.97347998     0.10100
H1862       H  0.14997072  0.99564197  0.94259604     0.12200
H1863       H  0.10650811  0.06486421  0.94569217     0.08800
H1864       H  0.10720687  0.06134682  0.97641954     0.11600
C1865       C  0.13246350  0.90256356  0.87682209    -0.03000
C1866       C  0.14729884  0.88460752  0.88207839    -0.05600
C1867       C  0.14763393  0.84908321  0.88117954    -0.20700
C1868       C  0.13309445  0.83096352  0.87525110     0.25000
C1869       C  0.11832281  0.84906113  0.86999609    -0.18300
C1870       C  0.11799327  0.88427173  0.87085904    -0.08200
C1871       C  0.13383812  0.79342342  0.87386572    -0.18500
C1872       C  0.11941908  0.77387738  0.87430290    -0.23300
C1873       C  0.11954449  0.73655932  0.87204407     0.27100
C1874       C  0.10565483  0.71755165  0.87871090    -0.20100
C1875       C  0.10520323  0.68235000  0.87683617    -0.09700
C1876       C  0.11847475  0.66549981  0.86791714    -0.10300
C1877       C  0.13209798  0.68462493  0.86074847    -0.03200
C1878       C  0.13267158  0.71980185  0.86282463    -0.18300
H1879       H  0.15868022  0.89797209  0.88664544     0.10800
H1880       H  0.15925384  0.83571449  0.88512534     0.10800
H1881       H  0.10709656  0.83627127  0.86475771     0.10500
H1882       H  0.10635135  0.89718259  0.86661848     0.11600
H1883       H  0.14658744  0.78169763  0.87287824     0.11700
H1884       H  0.10690133  0.78544225  0.87705568     0.13600
H1885       H  0.09524482  0.72994159  0.88563731     0.10100
H1886       H  0.09451558  0.66829354  0.88244674     0.12200
H1887       H  0.14254767  0.67230644  0.85385452     0.08800
H1888       H  0.14328269  0.73373467  0.85703960     0.11600
C1889       C  0.12264392  0.16545042  0.87286111    -0.03000
C1890       C  0.13126367  0.18199539  0.85942354    -0.05600
C1891       C  0.13459107  0.21673092  0.86010760    -0.20700
C1892       C  0.12912671  0.23593596  0.87405871     0.25000
C1893       C  0.12022946  0.21970900  0.88742448    -0.18300
C1894       C  0.11705195  0.18475468  0.88683991    -0.08200
C1895       C  0.13306437  0.27272892  0.87426383    -0.18500
C1896       C  0.12213401  0.29552127  0.88108669    -0.23300
C1897       C  0.12462059  0.33250377  0.87901976     0.27100
C1898       C  0.10986324  0.35263780  0.87652718    -0.20100
C1899       C  0.11150954  0.38746876  0.87414968    -0.09700
C1900       C  0.12794335  0.40317857  0.87468182    -0.10300
C1901       C  0.14277959  0.38321816  0.87757559    -0.03200
C1902       C  0.14115614  0.34798739  0.87953784    -0.18300
H1903       H  0.13588732  0.16796473  0.84850517     0.10800
H1904       H  0.14144658  0.22867909  0.84966725     0.10800
H1905       H  0.11614530  0.23378527  0.89852273     0.10500
H1906       H  0.11061976  0.17274750  0.89750659     0.11600
H1907       H  0.14430710  0.28154858  0.86710174     0.11700
H1908       H  0.10993851  0.28692108  0.88664447     0.13600
H1909       H  0.09701367  0.34127630  0.87614350     0.10100
H1910       H  0.09981352  0.40226301  0.87214345     0.12200
H1911       H  0.15556927  0.39476445  0.87810504     0.08800
H1912       H  0.15274108  0.33299102  0.88170970     0.11600
C1913       C  0.12453091  0.01276672  0.80962491    -0.03000
C1914       C  0.13770679  0.02613130  0.79915400    -0.05600
C1915       C  0.13879752  0.01689010  0.78207132    -0.20700
C1916       C  0.12658020  0.99462115  0.77496475     0.25000
C1917       C  0.11328956  0.98139412  0.78537003    -0.18300
C1918       C  0.11232334  0.99029643  0.80253060    -0.08200
C1919       C  0.12853729  0.98472064  0.75687972    -0.18500
C1920       C  0.11500882  0.97602084  0.74696482    -0.23300
C1921       C  0.11707772  0.96770764  0.72869929     0.27100
C1922       C  0.10361905  0.97596400  0.71746619    -0.20100
C1923       C  0.10534538  0.96947340  0.70011987    -0.09700
C1924       C  0.12043430  0.95382557  0.69366749    -0.10300
C1925       C  0.13365402  0.94439302  0.70499978    -0.03200
C1926       C  0.13204455  0.95142444  0.72234093    -0.18300
H1927       H  0.14742065  0.04321765  0.80423780     0.10800
H1928       H  0.14923171  0.02721886  0.77435917     0.10800
H1929       H  0.10391014  0.96348803  0.78042261     0.10500
H1930       H  0.10209597  0.97933641  0.81027881     0.11600
H1931       H  0.14145481  0.98668359  0.75129577     0.11700
H1932       H  0.10184984  0.97742268  0.75201479     0.13600
H1933       H  0.09189381  0.98819664  0.72207692     0.10100
H1934       H  0.09487176  0.97685613  0.69173150     0.12200
H1935       H  0.14541217  0.93227683  0.70041332     0.08800
H1936       H  0.14245881  0.94390450  0.73074770     0.11600
C1937       C  0.86384155  0.95150930  0.93405870    -0.03000
C1938       C  0.85225225  0.97411011  0.94201286    -0.05600
C1939       C  0.85060813  0.97465855  0.95965536    -0.20700
C1940       C  0.86057230  0.95286095  0.96976970     0.25000
C1941       C  0.87195284  0.92977872  0.96180843    -0.18300
C1942       C  0.87363209  0.92928002  0.94416162    -0.08200
C1943       C  0.85850739  0.95455681  0.98849978    -0.18500
C1944       C  0.87115002  0.94498087  0.99928096    -0.23300
C1945       C  0.86997596  0.94665873  0.01811058     0.27100
C1946       C  0.88381593  0.93295990  0.02743107    -0.20100
C1947       C  0.88375950  0.93394337  0.04508977    -0.09700
C1948       C  0.86985690  0.94885691  0.05397666    -0.10300
C1949       C  0.85595408  0.96272567  0.04473944    -0.03200
C1950       C  0.85596332  0.96160486  0.02698273    -0.18300
H1951       H  0.84446175  0.99151460  0.93461614     0.10800
H1952       H  0.84164364  0.99245605  0.96543857     0.10800
H1953       H  0.87938297  0.91163195  0.96907323     0.10500
H1954       H  0.88251031  0.91125942  0.93843443     0.11600
H1955       H  0.84645247  0.96515218  0.99328891     0.11700
H1956       H  0.88335939  0.93575830  0.99408871     0.13600
H1957       H  0.89479931  0.92137510  0.02101604     0.10100
H1958       H  0.89473188  0.92314085  0.05177327     0.12200
H1959       H  0.84503912  0.97437145  0.05122848     0.08800
H1960       H  0.84504436  0.97276236  0.02045345     0.11600
C1961       C  0.05770108  0.01995000  0.87903887    -0.03000
C1962       C  0.04652537  0.04431238  0.88618153    -0.05600
C1963       C  0.02847261  0.03888346  0.88659221    -0.20700
C1964       C  0.02123914  0.00876566  0.88019269     0.25000
C1965       C  0.03243034  0.98437366  0.87309958    -0.18300
C1966       C  0.05040782  0.98994137  0.87251185    -0.08200
C1967       C  0.00196768  0.00450307  0.88002813    -0.18500
C1968       C  0.99395579  0.97401855  0.87993642    -0.23300
C1969       C  0.97474091  0.97000816  0.87838104     0.27100
C1970       C  0.96655930  0.94109623  0.88514316    -0.20100
C1971       C  0.94852985  0.93636301  0.88345781    -0.09700
C1972       C  0.93837204  0.96018899  0.87466419    -0.10300
C1973       C  0.94667685  0.98875678  0.86762432    -0.03200
C1974       C  0.96459708  0.99364017  0.86946881    -0.18300
H1975       H  0.05170153  0.06773558  0.89125621     0.10800
H1976       H  0.02011807  0.05827137  0.89193896     0.10800
H1977       H  0.02733740  0.96133060  0.86756870     0.10500
H1978       H  0.05861195  0.97062824  0.86689415     0.11600
H1979       H  0.99413818  0.02740561  0.88029339     0.11700
H1980       H  0.00163916  0.95112756  0.88141545     0.13600
H1981       H  0.97412406  0.92226577  0.89186941     0.10100
H1982       H  0.94256801  0.91403667  0.88897954     0.12200
H1983       H  0.93930129  0.00760091  0.86072193     0.08800
H1984       H  0.97049888  0.01563126  0.86358864     0.11600
C1985       C  0.86618926  0.45479796  0.94100808    -0.03000
C1986       C  0.85355288  0.47400111  0.94967534    -0.05600
C1987       C  0.85313163  0.47479483  0.96740772    -0.20700
C1988       C  0.86535727  0.45664029  0.97700033     0.25000
C1989       C  0.87800717  0.43731313  0.96833832    -0.18300
C1990       C  0.87843530  0.43653936  0.95057683    -0.08200
C1991       C  0.86397604  0.45773997  0.99589384    -0.18500
C1992       C  0.87697156  0.44893429  0.00651045    -0.23300
C1993       C  0.87569604  0.44970167  0.02541473     0.27100
C1994       C  0.88846523  0.43256808  0.03481025    -0.20100
C1995       C  0.88818958  0.43291038  0.05253692    -0.09700
C1996       C  0.87513874  0.45058489  0.06140691    -0.10300
C1997       C  0.86232683  0.46781110  0.05205372    -0.03200
C1998       C  0.86261056  0.46750051  0.03428377    -0.18300
H1999       H  0.84390067  0.48839917  0.94276262     0.10800
H2000       H  0.84317888  0.48974595  0.97366979     0.10800
H2001       H  0.88739123  0.42210571  0.97510272     0.10500
H2002       H  0.88828210  0.42130763  0.94434314     0.11600
H2003       H  0.85168430  0.46645459  0.00108626     0.11700
H2004       H  0.88927927  0.44045949  0.00124994     0.13600
H2005       H  0.89874007  0.41875132  0.02839458     0.10100
H2006       H  0.89826253  0.41930917  0.05928614     0.12200
H2007       H  0.85212935  0.48183156  0.05846441     0.08800
H2008       H  0.85272810  0.48178961  0.02769381     0.11600
C2009       C  0.85768892  0.58461554  0.87533525    -0.03000
C2010       C  0.84785067  0.60280374  0.88730897    -0.05600
C2011       C  0.84850832  0.63836711  0.88759783    -0.20700
C2012       C  0.85879255  0.65622517  0.87580310     0.25000
C2013       C  0.86841509  0.63787574  0.86374280    -0.18300
C2014       C  0.86776920  0.60267052  0.86345498    -0.08200
C2015       C  0.86017061  0.69373018  0.87684289    -0.18500
C2016       C  0.86435167  0.71299684  0.86330785    -0.23300
C2017       C  0.86704466  0.75015745  0.86406781     0.27100
C2018       C  0.86478707  0.76920500  0.84922560    -0.20100
C2019       C  0.86729054  0.80425268  0.84931501    -0.09700
C2020       C  0.87239919  0.82096458  0.86422665    -0.10300
C2021       C  0.87524098  0.80172450  0.87896587    -0.03200
C2022       C  0.87257231  0.76665726  0.87890729    -0.18300
H2023       H  0.84010371  0.58959017  0.89671909     0.10800
H2024       H  0.84111628  0.65195229  0.89713600     0.10800
H2025       H  0.87699337  0.65044331  0.85482864     0.10500
H2026       H  0.87559329  0.58954250  0.85408362     0.11600
H2027       H  0.85741317  0.70565546  0.88895695     0.11700
H2028       H  0.86530041  0.70133100  0.85088023     0.13600
H2029       H  0.86079232  0.75698207  0.83757043     0.10100
H2030       H  0.86501656  0.81830240  0.83773533     0.12200
H2031       H  0.87917296  0.81384484  0.89065981     0.08800
H2032       H  0.87501140  0.75258759  0.89042892     0.11600
C2033       C  0.86980201  0.08390207  0.87463522    -0.03000
C2034       C  0.88653139  0.09838999  0.87539978    -0.05600
C2035       C  0.88865526  0.13324284  0.87751281    -0.20700
C2036       C  0.87413934  0.15460519  0.87849748     0.25000
C2037       C  0.85733110  0.14021315  0.87803057    -0.18300
C2038       C  0.85519049  0.10505643  0.87626166    -0.08200
C2039       C  0.87709827  0.19169181  0.87992741    -0.18500
C2040       C  0.86660066  0.21451320  0.87251706    -0.23300
C2041       C  0.87029359  0.25149618  0.87216234     0.27100
C2042       C  0.86357068  0.27062557  0.85874349    -0.20100
C2043       C  0.86591227  0.30566648  0.85818393    -0.09700
C2044       C  0.87483671  0.32270439  0.87121494    -0.10300
C2045       C  0.88191462  0.30349627  0.88453897    -0.03200
C2046       C  0.87969103  0.26819276  0.88500914    -0.18300
H2047       H  0.89806035  0.08267558  0.87445487     0.10800
H2048       H  0.90170890  0.14365486  0.87799297     0.10800
H2049       H  0.84586954  0.15601998  0.87916799     0.10500
H2050       H  0.84216952  0.09451456  0.87585640     0.11600
H2051       H  0.88914484  0.20012090  0.88574411     0.11700
H2052       H  0.85551504  0.20554223  0.86525615     0.13600
H2053       H  0.85630471  0.25842366  0.84869339     0.10100
H2054       H  0.86020025  0.31951739  0.84773802     0.12200
H2055       H  0.88867634  0.31582521  0.89486689     0.08800
H2056       H  0.88478023  0.25430219  0.89572831     0.11600
C2057       C  0.93452834  0.48012145  0.87717680    -0.03000
C2058       C  0.93948622  0.51323986  0.87257970    -0.05600
C2059       C  0.95698895  0.52286889  0.87246959    -0.20700
C2060       C  0.97003729  0.49952300  0.87660922     0.25000
C2061       C  0.96513789  0.46647507  0.88150618    -0.18300
C2062       C  0.94752224  0.45693167  0.88186243    -0.08200
C2063       C  0.98852687  0.51080951  0.87591767    -0.18500
C2064       C  0.00178546  0.48969070  0.87226458    -0.23300
C2065       C  0.02031864  0.50059102  0.87077683     0.27100
C2066       C  0.03190201  0.47975326  0.86178079    -0.20100
C2067       C  0.04959885  0.48779804  0.86071198    -0.09700
C2068       C  0.05625500  0.51677172  0.86881423    -0.10300
C2069       C  0.04464919  0.53798622  0.87765754    -0.03200
C2070       C  0.02686331  0.53003296  0.87862972    -0.18300
H2071       H  0.92978963  0.53189139  0.86909489     0.10800
H2072       H  0.96037124  0.54854346  0.86884207     0.10800
H2073       H  0.97484047  0.44809171  0.88525146     0.10500
H2074       H  0.94409429  0.43134004  0.88555740     0.11600
H2075       H  0.99103403  0.53774658  0.87724737     0.11700
H2076       H  0.99888712  0.46337427  0.86938548     0.13600
H2077       H  0.02726329  0.45690190  0.85565798     0.10100
H2078       H  0.05814382  0.47075839  0.85386240     0.12200
H2079       H  0.04935873  0.56041255  0.88409826     0.08800
H2080       H  0.01847175  0.54642496  0.88599300     0.11600
C2081       C  0.86971081  0.55304705  0.56176848    -0.03000
C2082       C  0.85468168  0.54143888  0.55344877    -0.05600
C2083       C  0.85401209  0.54064347  0.53573311    -0.20700
C2084       C  0.86846197  0.55067047  0.52601120     0.25000
C2085       C  0.88344123  0.56257552  0.53430562    -0.18300
C2086       C  0.88402296  0.56387309  0.55199265    -0.08200
C2087       C  0.86734598  0.54973274  0.50726105    -0.18500
C2088       C  0.88123872  0.54348172  0.49727741    -0.23300
C2089       C  0.88025250  0.54330775  0.47850367     0.27100
C2090       C  0.89167345  0.52262420  0.46920907    -0.20100
C2091       C  0.89128790  0.52253692  0.45147207    -0.09700
C2092       C  0.87966465  0.54366638  0.44268095    -0.10300
C2093       C  0.86840270  0.56471439  0.45203134    -0.03200
C2094       C  0.86866513  0.56451107  0.46973367    -0.18300
H2095       H  0.84338652  0.53324214  0.56062469     0.10800
H2096       H  0.84225264  0.53179009  0.52959732     0.10800
H2097       H  0.89460997  0.57144680  0.52715559     0.10500
H2098       H  0.89575597  0.57313449  0.55801507     0.11600
H2099       H  0.85456500  0.55274547  0.50159380     0.11700
H2100       H  0.89362527  0.53692597  0.50302964     0.13600
H2101       H  0.90083842  0.50632633  0.47570169     0.10100
H2102       H  0.90019078  0.50615042  0.44465337     0.12200
H2103       H  0.85935004  0.58142860  0.44567087     0.08800
H2104       H  0.86004461  0.58151489  0.47649935     0.11600
C2105       C  0.94122974  0.53479207  0.62035234    -0.03000
C2106       C  0.95186480  0.55547177  0.61013643    -0.05600
C2107       C  0.96951084  0.54775762  0.60784232    -0.20700
C2108       C  0.97683253  0.51895256  0.61545064     0.25000
C2109       C  0.96622307  0.49825444  0.62568451    -0.18300
C2110       C  0.94863962  0.50610965  0.62810807    -0.08200
C2111       C  0.99578006  0.51247503  0.61344041    -0.18500
C2112       C  0.00291632  0.48132346  0.61436444    -0.23300
C2113       C  0.02203733  0.47552694  0.61390497     0.27100
C2114       C  0.02857970  0.44441403  0.60802265    -0.20100
C2115       C  0.04650163  0.43766154  0.60840365    -0.09700
C2116       C  0.05816451  0.46167940  0.61504295    -0.10300
C2117       C  0.05157259  0.49283080  0.62086905    -0.03200
C2118       C  0.03375546  0.49970187  0.62029896    -0.18300
H2119       H  0.94658129  0.57769706  0.60396081     0.10800
H2120       H  0.97747041  0.56429298  0.60004922     0.10800
H2121       H  0.97154144  0.47643610  0.63216949     0.10500
H2122       H  0.94084678  0.48962654  0.63608215     0.11600
H2123       H  0.00406557  0.53417343  0.61079121     0.11700
H2124       H  0.99452033  0.45922608  0.61526869     0.13600
H2125       H  0.01978849  0.42525669  0.60318331     0.10100
H2126       H  0.05117594  0.41341316  0.60385277     0.12200
H2127       H  0.06019439  0.51193204  0.62603368     0.08800
H2128       H  0.02917466  0.52355818  0.62539264     0.11600
C2129       C  0.86983372  0.47201108  0.80828170    -0.03000
C2130       C  0.85670577  0.45982626  0.79750062    -0.05600
C2131       C  0.85640650  0.46926040  0.78038225    -0.20700
C2132       C  0.86938904  0.49046638  0.77361629     0.25000
C2133       C  0.88271832  0.50209902  0.78433316    -0.18300
C2134       C  0.88290357  0.49302308  0.80145736    -0.08200
C2135       C  0.86819711  0.50146854  0.75562638    -0.18500
C2136       C  0.88225289  0.50974601  0.74623096    -0.23300
C2137       C  0.88108856  0.52045435  0.72823487     0.27100
C2138       C  0.89463797  0.51177216  0.71710895    -0.20100
C2139       C  0.89385017  0.52076391  0.70000170    -0.09700
C2140       C  0.87965980  0.53938276  0.69370852    -0.10300
C2141       C  0.86640199  0.54930755  0.70499186    -0.03200
C2142       C  0.86704454  0.53974130  0.72209082    -0.18300
H2143       H  0.84638337  0.44381964  0.80239760     0.10800
H2144       H  0.84594024  0.46013392  0.77241296     0.10800
H2145       H  0.89270275  0.51914916  0.77969656     0.10500
H2146       H  0.89317195  0.50293622  0.80943138     0.11600
H2147       H  0.85541763  0.50136323  0.74975124     0.11700
H2148       H  0.89519001  0.50649271  0.75150915     0.13600
H2149       H  0.90568649  0.49728548  0.72159221     0.10100
H2150       H  0.90432221  0.51289804  0.69165318     0.12200
H2151       H  0.85531450  0.56366430  0.70051306     0.08800
H2152       H  0.85662774  0.54760954  0.73048974     0.11600
C2153       C  0.87153443  0.04709865  0.43447103    -0.03000
C2154       C  0.85801413  0.02989893  0.44292044    -0.05600
C2155       C  0.85689672  0.03038529  0.46062924    -0.20700
C2156       C  0.86926210  0.04791687  0.47037532     0.25000
C2157       C  0.88277171  0.06529086  0.46188022    -0.18300
C2158       C  0.88389813  0.06474442  0.44418038    -0.08200
C2159       C  0.86726819  0.04779745  0.48922162    -0.18500
C2160       C  0.87958955  0.05862752  0.50012576    -0.23300
C2161       C  0.87756883  0.05836777  0.51891843     0.27100
C2162       C  0.88851166  0.07933535  0.52855038    -0.20100
C2163       C  0.88762579  0.07927175  0.54624609    -0.09700
C2164       C  0.87579487  0.05806240  0.55480812    -0.10300
C2165       C  0.86480212  0.03701659  0.54519716    -0.03200
C2166       C  0.86570774  0.03704757  0.52745721    -0.18300
H2167       H  0.84822983  0.01611962  0.43585964     0.10800
H2168       H  0.84629941  0.01691358  0.46674602     0.10800
H2169       H  0.89240232  0.07986419  0.46864154     0.10500
H2170       H  0.89443011  0.07846343  0.43809916     0.11600
H2171       H  0.85503311  0.03826520  0.49420657     0.11700
H2172       H  0.89177076  0.06859762  0.49530932     0.13600
H2173       H  0.89783332  0.09586016  0.52234807     0.10100
H2174       H  0.89630275  0.09579927  0.55321668     0.12200
H2175       H  0.85566518  0.02010119  0.55138619     0.08800
H2176       H  0.85739421  0.01971721  0.52060313     0.11600
C2177       C  0.87843779  0.68685286  0.62742040    -0.03000
C2178       C  0.86997541  0.70592392  0.64005449    -0.05600
C2179       C  0.86742345  0.74075487  0.63801599    -0.20700
C2180       C  0.87338164  0.75746200  0.62340634     0.25000
C2181       C  0.88216166  0.73859390  0.61088001    -0.18300
C2182       C  0.88468889  0.70369604  0.61289802    -0.08200
C2183       C  0.86964685  0.79422696  0.62148031    -0.18500
C2184       C  0.87940661  0.81519969  0.61192308    -0.23300
C2185       C  0.87655068  0.85234652  0.61162599     0.27100
C2186       C  0.89112232  0.87364265  0.61084791    -0.20100
C2187       C  0.88914595  0.90869160  0.61188448    -0.09700
C2188       C  0.87250491  0.92328970  0.61324515    -0.10300
C2189       C  0.85778484  0.90219606  0.61302334    -0.03200
C2190       C  0.85979549  0.86686290  0.61239186    -0.18300
H2191       H  0.86488498  0.69380323  0.65135222     0.10800
H2192       H  0.86060831  0.75466999  0.64784148     0.10800
H2193       H  0.88657720  0.75037117  0.59924839     0.10500
H2194       H  0.89103787  0.68973887  0.60280604     0.11600
H2195       H  0.85920352  0.80482232  0.62914726     0.11700
H2196       H  0.89095464  0.80558092  0.60557875     0.13600
H2197       H  0.90412429  0.86307482  0.61006659     0.10100
H2198       H  0.90070354  0.92448607  0.61181295     0.12200
H2199       H  0.84484164  0.91292445  0.61398187     0.08800
H2200       H  0.84829864  0.85095765  0.61258591     0.11600
C2201       C  0.88206103  0.18561938  0.62553348    -0.03000
C2202       C  0.89419664  0.20397793  0.61578924    -0.05600
C2203       C  0.89408886  0.23948099  0.61591300    -0.20700
C2204       C  0.88160172  0.25728323  0.62542202     0.25000
C2205       C  0.86962603  0.23897587  0.63534172    -0.18300
C2206       C  0.86989594  0.20357300  0.63543457    -0.08200
C2207       C  0.88170195  0.29489032  0.62526765    -0.18500
C2208       C  0.86706974  0.31356263  0.62676075    -0.23300
C2209       C  0.86725143  0.35119288  0.62697889     0.27100
C2210       C  0.85295696  0.36930673  0.62057162    -0.20100
C2211       C  0.85289424  0.40486390  0.62067620    -0.09700
C2212       C  0.86701848  0.42288836  0.62751205    -0.10300
C2213       C  0.88108964  0.40455516  0.63432211    -0.03200
C2214       C  0.88122298  0.36921539  0.63404127    -0.18300
H2215       H  0.90374306  0.19092419  0.60805079     0.10800
H2216       H  0.90358082  0.25309307  0.60832460     0.10800
H2217       H  0.86016134  0.25196103  0.64319432     0.10500
H2218       H  0.86034937  0.19025693  0.64307987     0.11600
H2219       H  0.89410028  0.30746539  0.62307583     0.11700
H2220       H  0.85448839  0.30096687  0.62714043     0.13600
H2221       H  0.84193612  0.35590419  0.61525521     0.10100
H2222       H  0.84183861  0.41818685  0.61540954     0.12200
H2223       H  0.89216296  0.41751126  0.63980452     0.08800
H2224       H  0.89218379  0.35607455  0.63959279     0.11600
C2225       C  0.94306465  0.03593097  0.62106324    -0.03000
C2226       C  0.95482756  0.05764708  0.61273977    -0.05600
C2227       C  0.97263295  0.04994277  0.61217592    -0.20700
C2228       C  0.97902389  0.02008879  0.61960370     0.25000
C2229       C  0.96730588  0.99855262  0.62810874    -0.18300
C2230       C  0.94955960  0.00644284  0.62886203    -0.08200
C2231       C  0.99805484  0.01309492  0.61904434    -0.18500
C2232       C  0.00492182  0.98162108  0.61957173    -0.23300
C2233       C  0.02403519  0.97523831  0.61987622     0.27100
C2234       C  0.03072498  0.94468751  0.61339273    -0.20100
C2235       C  0.04865649  0.93782091  0.61399450    -0.09700
C2236       C  0.06019244  0.96114673  0.62142483    -0.10300
C2237       C  0.05340330  0.99152161  0.62804967    -0.03200
C2238       C  0.03559915  0.99849016  0.62728945    -0.18300
H2239       H  0.95028056  0.08058119  0.60665366     0.10800
H2240       H  0.98143430  0.06718919  0.60574454     0.10800
H2241       H  0.97182847  0.97588710  0.63443964     0.10500
H2242       H  0.94088502  0.98915213  0.63541859     0.11600
H2243       H  0.00666634  0.03474786  0.61756184     0.11700
H2244       H  0.99633341  0.95974418  0.61929753     0.13600
H2245       H  0.02205673  0.92615949  0.60779317     0.10100
H2246       H  0.05344398  0.91410942  0.60888038     0.12200
H2247       H  0.06187077  0.01004225  0.63392656     0.08800
H2248       H  0.03090962  0.02178240  0.63291331     0.11600
C2249       C  0.87189955  0.03145205  0.68665041    -0.03000
C2250       C  0.85910935  0.04697540  0.69681157    -0.05600
C2251       C  0.85744496  0.03850870  0.71397105    -0.20700
C2252       C  0.86871611  0.01487313  0.72142836     0.25000
C2253       C  0.88146258  0.99918500  0.71126901    -0.18300
C2254       C  0.88300152  0.00734365  0.69407159    -0.08200
C2255       C  0.86652009  0.00637344  0.73966608    -0.18500
C2256       C  0.87988977  0.99680912  0.74958626    -0.23300
C2257       C  0.87792357  0.98904980  0.76792181     0.27100
C2258       C  0.89217714  0.99430696  0.77869521    -0.20100
C2259       C  0.89088942  0.98713827  0.79601068    -0.09700
C2260       C  0.87543030  0.97372040  0.80284582    -0.10300
C2261       C  0.86125693  0.96775059  0.79202271    -0.03200
C2262       C  0.86243743  0.97552791  0.77473922    -0.18300
H2263       H  0.85023377  0.06538204  0.69146032     0.10800
H2264       H  0.84740860  0.05068254  0.72148948     0.10800
H2265       H  0.89003974  0.98011151  0.71647416     0.10500
H2266       H  0.89289455  0.99469958  0.68657878     0.11600
H2267       H  0.85371730  0.01005167  0.74526464     0.11700
H2268       H  0.89299508  0.99653552  0.74435904     0.13600
H2269       H  0.90430111  0.00435087  0.77372042     0.10100
H2270       H  0.90207105  0.99172039  0.80403047     0.12200
H2271       H  0.84919076  0.95739137  0.79696004     0.08800
H2272       H  0.85134674  0.97032467  0.76671986     0.11600
C2273       C  0.37226599  0.79234014  0.56378145    -0.03000
C2274       C  0.38358276  0.81491444  0.55542716    -0.05600
C2275       C  0.38440285  0.81588729  0.53774428    -0.20700
C2276       C  0.37396967  0.79439176  0.52786832     0.25000
C2277       C  0.36258754  0.77173849  0.53622324    -0.18300
C2278       C  0.36172905  0.77085280  0.55396433    -0.08200
C2279       C  0.37587862  0.79619360  0.50904988    -0.18500
C2280       C  0.36565828  0.77967811  0.49789282    -0.23300
C2281       C  0.36793417  0.78180886  0.47915256     0.27100
C2282       C  0.35387494  0.77273881  0.46876229    -0.20100
C2283       C  0.35541821  0.77375923  0.45111176    -0.09700
C2284       C  0.37110265  0.78391149  0.44339287    -0.10300
C2285       C  0.38525010  0.79281155  0.45374368    -0.03200
C2286       C  0.38375271  0.79152696  0.47142120    -0.18300
H2287       H  0.39192019  0.83183088  0.56254854     0.10800
H2288       H  0.39333774  0.83351084  0.53175063     0.10800
H2289       H  0.35446446  0.75424132  0.52930265     0.10500
H2290       H  0.35292665  0.75304681  0.55998862     0.11600
H2291       H  0.38604479  0.81275585  0.50425112     0.11700
H2292       H  0.35471977  0.76483291  0.50242245     0.13600
H2293       H  0.34158899  0.76493448  0.47432955     0.10100
H2294       H  0.34425368  0.76680782  0.44350568     0.12200
H2295       H  0.39758328  0.80031095  0.44817671     0.08800
H2296       H  0.39513261  0.79756252  0.47886875     0.11600
C2297       C  0.19457827  0.91594459  0.63028437    -0.03000
C2298       C  0.20766815  0.93586325  0.62272723    -0.05600
C2299       C  0.22499742  0.92458611  0.62236924    -0.20700
C2300       C  0.22951021  0.89282820  0.62912665     0.25000
C2301       C  0.21644777  0.87304119  0.63678333    -0.18300
C2302       C  0.19923295  0.88453232  0.63741862    -0.08200
C2303       C  0.24800891  0.88157508  0.62877874    -0.18500
C2304       C  0.25273746  0.84869636  0.62761669    -0.23300
C2305       C  0.27119929  0.83722317  0.62812218     0.27100
C2306       C  0.27612997  0.80740290  0.61960973    -0.20100
C2307       C  0.29335931  0.79558583  0.62032137    -0.09700
C2308       C  0.30589594  0.81296157  0.62993641    -0.10300
C2309       C  0.30082624  0.84255680  0.63862981    -0.03200
C2310       C  0.28374523  0.85458646  0.63770102    -0.18300
H2311       H  0.20453112  0.96019524  0.61716823     0.10800
H2312       H  0.23487660  0.94049962  0.61659200     0.10800
H2313       H  0.21954388  0.84889756  0.64255057     0.10500
H2314       H  0.18949330  0.86849664  0.64332491     0.11600
H2315       H  0.25799755  0.90108744  0.62889786     0.11700
H2316       H  0.24278301  0.82949541  0.62573393     0.13600
H2317       H  0.26664652  0.79337296  0.61227785     0.10100
H2318       H  0.29682547  0.77277649  0.61346967     0.12200
H2319       H  0.31012655  0.85671933  0.64611535     0.08800
H2320       H  0.28032404  0.87710038  0.64480078     0.11600
C2321       C  0.36693464  0.28829792  0.56683724    -0.03000
C2322       C  0.35171612  0.27742181  0.55859695    -0.05600
C2323       C  0.35079437  0.27744894  0.54091335    -0.20700
C2324       C  0.36516113  0.28763363  0.53113915     0.25000
C2325       C  0.38033640  0.29883503  0.53936489    -0.18300
C2326       C  0.38118561  0.29923296  0.55704145    -0.08200
C2327       C  0.36376766  0.28731694  0.51242338    -0.18500
C2328       C  0.37757156  0.28187096  0.50223792    -0.23300
C2329       C  0.37638720  0.28181325  0.48349741     0.27100
C2330       C  0.38854743  0.26297789  0.47413389    -0.20100
C2331       C  0.38821903  0.26325783  0.45642921    -0.09700
C2332       C  0.37586075  0.28286965  0.44771964    -0.10300
C2333       C  0.36370422  0.30182561  0.45711551    -0.03200
C2334       C  0.36395345  0.30132353  0.47481915    -0.18300
H2335       H  0.34046877  0.26911942  0.56581654     0.10800
H2336       H  0.33890520  0.26909120  0.53483924     0.10800
H2337       H  0.39146296  0.30782514  0.53219594     0.10500
H2338       H  0.39306139  0.30786217  0.56303545     0.11600
H2339       H  0.35086616  0.28989345  0.50697410     0.11700
H2340       H  0.39010839  0.27576695  0.50780005     0.13600
H2341       H  0.39833369  0.24797530  0.48054778     0.10100
H2342       H  0.39781075  0.24848199  0.44957398     0.12200
H2343       H  0.35406690  0.31731600  0.45079369     0.08800
H2344       H  0.35469647  0.31692478  0.48162721     0.11600
C2345       C  0.36821057  0.65457211  0.62816495    -0.03000
C2346       C  0.35959246  0.63598875  0.61553261    -0.05600
C2347       C  0.36084256  0.60053417  0.61512029    -0.20700
C2348       C  0.37053701  0.58297475  0.62740916     0.25000
C2349       C  0.37895805  0.60170573  0.64015064    -0.18300
C2350       C  0.37773380  0.63694370  0.64054109    -0.08200
C2351       C  0.37223698  0.54544736  0.62613910    -0.18500
C2352       C  0.37710193  0.52559357  0.63921818    -0.23300
C2353       C  0.37871587  0.48815947  0.63808073     0.27100
C2354       C  0.37677730  0.46896030  0.65294163    -0.20100
C2355       C  0.37738123  0.43361004  0.65238263    -0.09700
C2356       C  0.38029459  0.41669007  0.63696817    -0.10300
C2357       C  0.38318185  0.43589800  0.62221946    -0.03200
C2358       C  0.38234763  0.47132254  0.62274167    -0.18300
H2359       H  0.35228856  0.64886202  0.60573913     0.10800
H2360       H  0.35433400  0.58678607  0.60508040     0.10800
H2361       H  0.38700225  0.58958656  0.64958515     0.10500
H2362       H  0.38457481  0.65046902  0.65044349     0.11600
H2363       H  0.36876561  0.53379315  0.61415320     0.11700
H2364       H  0.37896880  0.53668675  0.65165205     0.13600
H2365       H  0.37427469  0.48132640  0.66496640     0.10100
H2366       H  0.37525814  0.41947850  0.66398298     0.12200
H2367       H  0.38548164  0.42352060  0.61016581     0.08800
H2368       H  0.38453283  0.48533978  0.61114048     0.11600
C2369       C  0.37649852  0.91760221  0.63698024    -0.03000
C2370       C  0.37048709  0.93304732  0.65195040    -0.05600
C2371       C  0.36935180  0.96825456  0.65311300    -0.20700
C2372       C  0.37386458  0.98871107  0.63925784     0.25000
C2373       C  0.38031717  0.97344607  0.62440948    -0.18300
C2374       C  0.38166543  0.93818066  0.62330573    -0.08200
C2375       C  0.37207689  0.02587927  0.64089293    -0.18500
C2376       C  0.36823167  0.04620333  0.62772671    -0.23300
C2377       C  0.36651143  0.08345529  0.62951151     0.27100
C2378       C  0.35603160  0.10151598  0.61808573    -0.20100
C2379       C  0.35479458  0.13687823  0.61908427    -0.09700
C2380       C  0.36426096  0.15475086  0.63139335    -0.10300
C2381       C  0.37459878  0.13653429  0.64290982    -0.03200
C2382       C  0.37576887  0.10137644  0.64195643    -0.18300
H2383       H  0.36648959  0.91791476  0.66274312     0.10800
H2384       H  0.36456168  0.97953102  0.66474788     0.10800
H2385       H  0.38441297  0.98867262  0.61369446     0.10500
H2386       H  0.38639455  0.92702832  0.61162525     0.11600
H2387       H  0.37289241  0.03643764  0.65357263     0.11700
H2388       H  0.36559416  0.03514461  0.61539126     0.13600
H2389       H  0.34888865  0.08824039  0.60830200     0.10100
H2390       H  0.34686908  0.15025272  0.60993882     0.12200
H2391       H  0.38215062  0.14952506  0.65249503     0.08800
H2392       H  0.38440344  0.08852622  0.65065192     0.11600
C2393       C  0.19250684  0.41668525  0.62571401    -0.03000
C2394       C  0.20552527  0.43455862  0.61686396    -0.05600
C2395       C  0.22298203  0.42422436  0.61772641    -0.20700
C2396       C  0.22773127  0.39544427  0.62713258     0.25000
C2397       C  0.21474905  0.37782921  0.63613964    -0.18300
C2398       C  0.19738828  0.38835524  0.63546010    -0.08200
C2399       C  0.24633605  0.38492477  0.62781673    -0.18500
C2400       C  0.25127827  0.35228223  0.62948789    -0.23300
C2401       C  0.26979184  0.34128461  0.63039442     0.27100
C2402       C  0.27433471  0.30875154  0.62466494    -0.20100
C2403       C  0.29155207  0.29720694  0.62573842    -0.09700
C2404       C  0.30454082  0.31768026  0.63297585    -0.10300
C2405       C  0.29992823  0.35011289  0.63891584    -0.03200
C2406       C  0.28278066  0.36185530  0.63757988    -0.18300
H2407       H  0.20223362  0.45651889  0.60929052     0.10800
H2408       H  0.23277817  0.43844801  0.61082262     0.10800
H2409       H  0.21799625  0.35616355  0.64392831     0.10500
H2410       H  0.18774214  0.37399247  0.64249094     0.11600
H2411       H  0.25617678  0.40442551  0.62609163     0.11700
H2412       H  0.24140914  0.33253674  0.62945004     0.13600
H2413       H  0.26453801  0.29229664  0.61921302     0.10100
H2414       H  0.29466082  0.27213490  0.62104407     0.12200
H2415       H  0.30962771  0.36660842  0.64448843     0.08800
H2416       H  0.27967275  0.38673272  0.64250726     0.11600
C2417       C  0.37272538  0.68382457  0.06480676    -0.03000
C2418       C  0.38352839  0.66136794  0.05579781    -0.05600
C2419       C  0.38299692  0.66008506  0.03810166    -0.20700
C2420       C  0.37181791  0.68140793  0.02894838     0.25000
C2421       C  0.36076456  0.70350496  0.03797083    -0.18300
C2422       C  0.36125381  0.70470447  0.05568794    -0.08200
C2423       C  0.37201491  0.67927618  0.01010405    -0.18500
C2424       C  0.36589275  0.70373559  0.99977837    -0.23300
C2425       C  0.36662281  0.70159008  0.98096502     0.27100
C2426       C  0.35466399  0.72049139  0.97143887    -0.20100
C2427       C  0.35497107  0.71944004  0.95372147    -0.09700
C2428       C  0.36740886  0.69970318  0.94509964    -0.10300
C2429       C  0.37960074  0.68125690  0.95463864    -0.03200
C2430       C  0.37924848  0.68221864  0.97235791    -0.18300
H2431       H  0.39241335  0.64470355  0.06241229     0.10800
H2432       H  0.39151999  0.64257862  0.03151794     0.10800
H2433       H  0.35153079  0.71960753  0.03153137     0.10500
H2434       H  0.35264103  0.72207666  0.06223833     0.11600
H2435       H  0.37779270  0.65672369  0.00460212     0.11700
H2436       H  0.35993463  0.72623023  0.00511941     0.13600
H2437       H  0.34494123  0.73592800  0.97773862     0.10100
H2438       H  0.34545965  0.73416292  0.94678891     0.12200
H2439       H  0.38947798  0.66608358  0.94841834     0.08800
H2440       H  0.38910771  0.66827254  0.97918800     0.11600
C2441       C  0.30453042  0.65582245  0.87999147    -0.03000
C2442       C  0.30303105  0.62103429  0.87632338    -0.05600
C2443       C  0.28697581  0.60454169  0.87739673    -0.20700
C2444       C  0.27188239  0.62248806  0.88173204     0.25000
C2445       C  0.27329809  0.65727631  0.88564467    -0.18300
C2446       C  0.28954780  0.67372679  0.88495507    -0.08200
C2447       C  0.25496898  0.60399388  0.88191390    -0.18500
C2448       C  0.23997120  0.61845656  0.87695848    -0.23300
C2449       C  0.22335901  0.59944815  0.87476348     0.27100
C2450       C  0.21146361  0.61137829  0.86274809    -0.20100
C2451       C  0.19541166  0.59542157  0.86051797    -0.09700
C2452       C  0.19059224  0.56729338  0.87048123    -0.10300
C2453       C  0.20258609  0.55494062  0.88244314    -0.03200
C2454       C  0.21886397  0.57077878  0.88452505    -0.18300
H2455       H  0.31438705  0.60635427  0.87275729     0.10800
H2456       H  0.28628687  0.57774301  0.87446546     0.10800
H2457       H  0.26192166  0.67165860  0.88939583     0.10500
H2458       H  0.29035550  0.70043741  0.88801382     0.11600
H2459       H  0.25525261  0.57692392  0.88440478     0.11700
H2460       H  0.24018791  0.64474772  0.87285720     0.13600
H2461       H  0.21457079  0.63334924  0.85506457     0.10100
H2462       H  0.18655445  0.60588870  0.85123838     0.12200
H2463       H  0.19924342  0.53358531  0.89044719     0.08800
H2464       H  0.22762348  0.56123717  0.89412393     0.11600
C2465       C  0.37011739  0.71139290  0.81261227    -0.03000
C2466       C  0.35776924  0.69526872  0.80223975    -0.05600
C2467       C  0.35693722  0.70262983  0.78489928    -0.20700
C2468       C  0.36860258  0.72575811  0.77749000     0.25000
C2469       C  0.38113039  0.74152094  0.78781097    -0.18300
C2470       C  0.38185139  0.73443873  0.80516378    -0.08200
C2471       C  0.36681468  0.73420209  0.75920425    -0.18500
C2472       C  0.38028631  0.74454345  0.74951422    -0.23300
C2473       C  0.37853513  0.75278178  0.73123191     0.27100
C2474       C  0.39270406  0.74674677  0.72039043    -0.20100
C2475       C  0.39153881  0.75395040  0.70308640    -0.09700
C2476       C  0.37629272  0.76815784  0.69629386    -0.10300
C2477       C  0.36226712  0.77523589  0.70723863    -0.03200
C2478       C  0.36332433  0.76741806  0.72453590    -0.18300
H2479       H  0.34847339  0.67754697  0.80758587     0.10800
H2480       H  0.34709797  0.69030969  0.77724809     0.10800
H2481       H  0.39004816  0.76013718  0.78265474     0.10500
H2482       H  0.39147700  0.74740872  0.81279547     0.11600
H2483       H  0.35415670  0.73035181  0.75339443     0.11700
H2484       H  0.39330672  0.74506045  0.75484409     0.13600
H2485       H  0.40462903  0.73588457  0.72528504     0.10100
H2486       H  0.40262664  0.74849109  0.69501664     0.12200
H2487       H  0.35037901  0.78629112  0.70238273     0.08800
H2488       H  0.35234151  0.77324567  0.73266522     0.11600
C2489       C  0.36781248  0.20069464  0.94694320    -0.03000
C2490       C  0.35541283  0.22032793  0.95567782    -0.05600
C2491       C  0.35540470  0.22176979  0.97340806    -0.20700
C2492       C  0.36768442  0.20351338  0.98289830     0.25000
C2493       C  0.38019376  0.18403897  0.97414678    -0.18300
C2494       C  0.38019352  0.18258021  0.95641333    -0.08200
C2495       C  0.36726081  0.20644162  0.00177118    -0.18500
C2496       C  0.37503687  0.18430610  0.01238466    -0.23300
C2497       C  0.37473743  0.18699953  0.03126786     0.27100
C2498       C  0.38665192  0.16750087  0.04057566    -0.20100
C2499       C  0.38673163  0.16837217  0.05830043    -0.09700
C2500       C  0.37478470  0.18867207  0.06724458    -0.10300
C2501       C  0.36281366  0.20819051  0.05797005    -0.03200
C2502       C  0.36274189  0.20734534  0.04021104    -0.18300
H2503       H  0.34570373  0.23469435  0.94882178     0.10800
H2504       H  0.34569559  0.23718150  0.97974997     0.10800
H2505       H  0.39026245  0.17038426  0.98080338     0.10500
H2506       H  0.39002713  0.16741959  0.95011867     0.11600
H2507       H  0.36006764  0.22768912  0.00695303     0.11700
H2508       H  0.38212099  0.16297118  0.00714485     0.13600
H2509       H  0.39598199  0.15144993  0.03409404     0.10100
H2510       H  0.39611529  0.15290844  0.06499042     0.12200
H2511       H  0.35335280  0.22394564  0.06443776     0.08800
H2512       H  0.35301300  0.22214987  0.03369472     0.11600
C2513       C  0.37577194  0.06535808  0.87949399    -0.03000
C2514       C  0.38836301  0.04767879  0.88886603    -0.05600
C2515       C  0.38784972  0.01223050  0.88982135    -0.20700
C2516       C  0.37447339  0.99394514  0.88185523     0.25000
C2517       C  0.36196052  0.01160269  0.87239812    -0.18300
C2518       C  0.36266747  0.04687504  0.87115238    -0.08200
C2519       C  0.37441435  0.95640951  0.88269183    -0.18500
C2520       C  0.35967266  0.93780507  0.88263856    -0.23300
C2521       C  0.35992286  0.90023061  0.88196732     0.27100
C2522       C  0.34687654  0.88131000  0.89018279    -0.20100
C2523       C  0.34698872  0.84575569  0.88950816    -0.09700
C2524       C  0.35999405  0.82860880  0.88030049    -0.10300
C2525       C  0.37272236  0.84782363  0.87170758    -0.03200
C2526       C  0.37270431  0.88310434  0.87254564    -0.18300
H2527       H  0.39860774  0.06123082  0.89541863     0.10800
H2528       H  0.39777139  0.99906325  0.89698423     0.10800
H2529       H  0.35177793  0.99816062  0.86570966     0.10500
H2530       H  0.35271410  0.05973652  0.86389959     0.11600
H2531       H  0.38693258  0.94373614  0.88371022     0.11700
H2532       H  0.34709930  0.95035995  0.88342221     0.13600
H2533       H  0.33675078  0.89406108  0.89734836     0.10100
H2534       H  0.33700491  0.83174868  0.89624659     0.12200
H2535       H  0.38288039  0.83561038  0.86437078     0.08800
H2536       H  0.38259379  0.89697452  0.86559857     0.11600
C2537       C  0.37625793  0.56561444  0.87828685    -0.03000
C2538       C  0.38401066  0.54789363  0.89174813    -0.05600
C2539       C  0.38175919  0.51277333  0.89334407    -0.20700
C2540       C  0.37177557  0.49457073  0.88153034     0.25000
C2541       C  0.36422693  0.51229288  0.86793285    -0.18300
C2542       C  0.36654550  0.54724195  0.86629164    -0.08200
C2543       C  0.36897522  0.45753470  0.88414978    -0.18500
C2544       C  0.36413196  0.43623531  0.87166556    -0.23300
C2545       C  0.36224723  0.39906274  0.87400396     0.27100
C2546       C  0.36552385  0.37797001  0.86006889    -0.20100
C2547       C  0.36483279  0.34282723  0.86178720    -0.09700
C2548       C  0.36040426  0.32791842  0.87739341    -0.10300
C2549       C  0.35619846  0.34888980  0.89117850    -0.03200
C2550       C  0.35723009  0.38426849  0.88954251    -0.18300
H2551       H  0.39141709  0.56125782  0.90130582     0.10800
H2552       H  0.38765974  0.49982999  0.90398374     0.10800
H2553       H  0.35599385  0.49967904  0.85880690     0.10500
H2554       H  0.36014335  0.56004051  0.85588780     0.11600
H2555       H  0.37182991  0.44727411  0.89660608     0.11700
H2556       H  0.36286582  0.44569556  0.85882208     0.13600
H2557       H  0.36917575  0.38870421  0.84791868     0.10100
H2558       H  0.36801333  0.32719047  0.85091951     0.12200
H2559       H  0.35277316  0.33793963  0.90333161     0.08800
H2560       H  0.35412910  0.39990247  0.90040672     0.11600
C2561       C  0.19081693  0.07083304  0.87535198    -0.03000
C2562       C  0.19597869  0.09618267  0.86380149    -0.05600
C2563       C  0.21164844  0.11364138  0.86593375    -0.20700
C2564       C  0.22270004  0.10591488  0.87947907     0.25000
C2565       C  0.21778849  0.08017923  0.89090947    -0.18300
C2566       C  0.20198181  0.06284210  0.88886989    -0.08200
C2567       C  0.23914244  0.12540135  0.88133480    -0.18500
C2568       C  0.25384015  0.11134797  0.88723564    -0.23300
C2569       C  0.27087032  0.12883914  0.88615842     0.27100
C2570       C  0.28520598  0.11046936  0.88023132    -0.20100
C2571       C  0.30141028  0.12600052  0.87850096    -0.09700
C2572       C  0.30382602  0.16014296  0.88311965    -0.10300
C2573       C  0.28955313  0.17846996  0.88951795    -0.03200
C2574       C  0.27309301  0.16302537  0.89081695    -0.18300
H2575       H  0.18770407  0.10318552  0.85327931     0.10800
H2576       H  0.21516264  0.13328200  0.85694264     0.10800
H2577       H  0.22589691  0.07406297  0.90167987     0.10500
H2578       H  0.19829411  0.04387236  0.89813568     0.11600
H2579       H  0.23967605  0.15083235  0.87604246     0.11700
H2580       H  0.25386598  0.08473783  0.89078171     0.13600
H2581       H  0.28378340  0.08411002  0.87662270     0.10100
H2582       H  0.31217303  0.11097163  0.87375305     0.12200
H2583       H  0.29107505  0.20468902  0.89329265     0.08800
H2584       H  0.26219158  0.17755159  0.89563995     0.11600
C2585       C  0.36753364  0.21170357  0.81433646    -0.03000
C2586       C  0.35371940  0.19922417  0.80447559    -0.05600
C2587       C  0.35219189  0.20849214  0.78740225    -0.20700
C2588       C  0.36458744  0.22986486  0.77979713     0.25000
C2589       C  0.37841121  0.24227783  0.78966037    -0.18300
C2590       C  0.37985682  0.23328898  0.80670696    -0.08200
C2591       C  0.36264385  0.23947906  0.76170167    -0.18500
C2592       C  0.37646938  0.24595837  0.75167770    -0.23300
C2593       C  0.37501825  0.25423262  0.73342109     0.27100
C2594       C  0.38851738  0.24421183  0.72253883    -0.20100
C2595       C  0.38779585  0.25152890  0.70525998    -0.09700
C2596       C  0.37370167  0.26973928  0.69850631    -0.10300
C2597       C  0.36032219  0.28051299  0.70946324    -0.03200
C2598       C  0.36091865  0.27266902  0.72678034    -0.18300
H2599       H  0.34388347  0.18293516  0.81004190     0.10800
H2600       H  0.34134396  0.19884722  0.78009208     0.10800
H2601       H  0.38791653  0.25961433  0.78437016     0.10500
H2602       H  0.39054848  0.24365733  0.81397902     0.11600
H2603       H  0.34965350  0.23918700  0.75628551     0.11700
H2604       H  0.38951687  0.24271471  0.75670366     0.13600
H2605       H  0.39957448  0.23024342  0.72739767     0.10100
H2606       H  0.39835197  0.24298976  0.69718596     0.12200
H2607       H  0.34930456  0.29459197  0.70462064     0.08800
H2608       H  0.35051151  0.28144326  0.73496093     0.11600
C2609       C  0.63635132  0.71527921  0.43577512    -0.03000
C2610       C  0.64829974  0.73669531  0.44399307    -0.05600
C2611       C  0.64874796  0.73849634  0.46170335    -0.20700
C2612       C  0.63722993  0.71914261  0.47162726     0.25000
C2613       C  0.62538872  0.69742959  0.46339515    -0.18300
C2614       C  0.62491421  0.69568310  0.44570064    -0.08200
C2615       C  0.63852868  0.72108435  0.49044931    -0.18500
C2616       C  0.62543862  0.71224174  0.50101593    -0.23300
C2617       C  0.62673517  0.71185911  0.51986037     0.27100
C2618       C  0.61427254  0.69322751  0.52900375    -0.20100
C2619       C  0.61489011  0.69148026  0.54667288    -0.09700
C2620       C  0.62795885  0.70857352  0.55573675    -0.10300
C2621       C  0.64031628  0.72773158  0.54664380    -0.03200
C2622       C  0.63971461  0.72943519  0.52890443    -0.18300
H2623       H  0.65731710  0.75212939  0.43674890     0.10800
H2624       H  0.65811400  0.75517065  0.46768283     0.10800
H2625       H  0.61671581  0.68108753  0.47047984     0.10500
H2626       H  0.61566899  0.67865673  0.43980341     0.11600
H2627       H  0.65078065  0.72998379  0.49559445     0.11700
H2628       H  0.61314675  0.70390752  0.49570872     0.13600
H2629       H  0.60406403  0.67961403  0.52242552     0.10100
H2630       H  0.60508984  0.67662532  0.55322257     0.12200
H2631       H  0.65045497  0.74148598  0.55323211     0.08800
H2632       H  0.64930352  0.74488346  0.52246657     0.11600
C2633       C  0.69322853  0.66906357  0.62238578    -0.03000
C2634       C  0.69599816  0.63566796  0.62801660    -0.05600
C2635       C  0.71241934  0.62086402  0.62697579    -0.20700
C2636       C  0.72662550  0.63926303  0.62071650     0.25000
C2637       C  0.72404017  0.67278497  0.61508946    -0.18300
C2638       C  0.70737710  0.68746561  0.61574442    -0.08200
C2639       C  0.74382462  0.62228074  0.62017604    -0.18500
C2640       C  0.75873084  0.63836225  0.62397819    -0.23300
C2641       C  0.77557704  0.62027891  0.62594538     0.27100
C2642       C  0.78788725  0.63338262  0.63725568    -0.20100
C2643       C  0.80399368  0.61754016  0.63934341    -0.09700
C2644       C  0.80833604  0.58842005  0.62992404    -0.10300
C2645       C  0.79593290  0.57504681  0.61867759    -0.03200
C2646       C  0.77969755  0.59076868  0.61671907    -0.18300
H2647       H  0.68533594  0.62057694  0.63296161     0.10800
H2648       H  0.71408142  0.59499880  0.63130024     0.10800
H2649       H  0.73478229  0.68734246  0.60993187     0.10500
H2650       H  0.70557572  0.71311766  0.61119092     0.11600
H2651       H  0.74390375  0.59494240  0.61856761     0.11700
H2652       H  0.75828144  0.66507302  0.62732111     0.13600
H2653       H  0.78504098  0.65605153  0.64450300     0.10100
H2654       H  0.81324980  0.62879244  0.64801251     0.12200
H2655       H  0.79892234  0.55292916  0.61108332     0.08800
H2656       H  0.77064101  0.58035150  0.60761907     0.11600
C2657       C  0.44061601  0.77560295  0.62566162    -0.03000
C2658       C  0.45096232  0.79962687  0.61712201    -0.05600
C2659       C  0.46900145  0.79516354  0.61577985    -0.20700
C2660       C  0.47703975  0.76637976  0.62267891     0.25000
C2661       C  0.46672769  0.74245054  0.63131984    -0.18300
C2662       C  0.44873665  0.74703750  0.63279519    -0.08200
C2663       C  0.49625686  0.76279565  0.62138199    -0.18500
C2664       C  0.50435217  0.73250971  0.62114240    -0.23300
C2665       C  0.52359508  0.72883041  0.62051536     0.27100
C2666       C  0.53084287  0.69947157  0.61334728    -0.20100
C2667       C  0.54889873  0.69462076  0.61313112    -0.09700
C2668       C  0.56006949  0.71880444  0.62038768    -0.10300
C2669       C  0.55278136  0.74811717  0.62766077    -0.03200
C2670       C  0.53476032  0.75311571  0.62771118    -0.18300
H2671       H  0.44514090  0.82196527  0.61153259     0.10800
H2672       H  0.47669579  0.81413534  0.60922165     0.10800
H2673       H  0.47254276  0.72049896  0.63726038     0.10500
H2674       H  0.44118571  0.72811283  0.63953195     0.11600
H2675       H  0.50387328  0.78583194  0.61995262     0.11700
H2676       H  0.49663120  0.70944494  0.62080797     0.13600
H2677       H  0.52249827  0.68024694  0.60787067     0.10100
H2678       H  0.55408384  0.67171644  0.60749035     0.12200
H2679       H  0.56100732  0.76721807  0.63340082     0.08800
H2680       H  0.52961520  0.77558459  0.63378475     0.11600
C2681       C  0.62813146  0.20610039  0.55638674    -0.03000
C2682       C  0.61448798  0.19118078  0.54720600    -0.05600
C2683       C  0.61462117  0.19154735  0.52950972    -0.20700
C2684       C  0.62839203  0.20666722  0.52049701     0.25000
C2685       C  0.64198393  0.22202397  0.52969243    -0.18300
C2686       C  0.64182603  0.22171209  0.54742840    -0.08200
C2687       C  0.62774114  0.20584870  0.50163256    -0.18500
C2688       C  0.64085574  0.21534583  0.49124594    -0.23300
C2689       C  0.63953729  0.21380084  0.47246541     0.27100
C2690       C  0.64982579  0.23573630  0.46261710    -0.20100
C2691       C  0.64881927  0.23516835  0.44491315    -0.09700
C2692       C  0.63753342  0.21246552  0.43668698    -0.10300
C2693       C  0.62750894  0.19002288  0.44654501    -0.03200
C2694       C  0.62857115  0.19050013  0.46420963    -0.18300
H2695       H  0.60368644  0.17907749  0.55368335     0.10800
H2696       H  0.60392435  0.17969166  0.52282146     0.10800
H2697       H  0.65273883  0.23453930  0.52343061     0.10500
H2698       H  0.65251188  0.23356724  0.55412071     0.11600
H2699       H  0.61566125  0.19694860  0.49607641     0.11700
H2700       H  0.65284250  0.22543764  0.49640191     0.13600
H2701       H  0.65852090  0.25365945  0.46865364     0.10100
H2702       H  0.65677300  0.25269824  0.43768532     0.12200
H2703       H  0.61891732  0.17180264  0.44060462     0.08800
H2704       H  0.62097534  0.17219092  0.47127808     0.11600
C2705       C  0.63652627  0.83380546  0.62416280    -0.03000
C2706       C  0.63141038  0.84959018  0.63932956    -0.05600
C2707       C  0.63098629  0.88478850  0.64057505    -0.20700
C2708       C  0.63523848  0.90505899  0.62658002     0.25000
C2709       C  0.64091763  0.88942017  0.61149014    -0.18300
C2710       C  0.64169187  0.85395062  0.61034852    -0.08200
C2711       C  0.63370295  0.94230843  0.62845302    -0.18500
C2712       C  0.62945778  0.96332044  0.61566211    -0.23300
C2713       C  0.62679829  0.00034967  0.61819501     0.27100
C2714       C  0.61627895  0.01848375  0.60682292    -0.20100
C2715       C  0.61386323  0.05350456  0.60871662    -0.09700
C2716       C  0.62200104  0.07110223  0.62202223    -0.10300
C2717       C  0.63239872  0.05279825  0.63345636    -0.03200
C2718       C  0.63488252  0.01801204  0.63150802    -0.18300
H2719       H  0.62751086  0.83461575  0.65021761     0.10800
H2720       H  0.62680429  0.89623273  0.65239207     0.10800
H2721       H  0.64473874  0.90447769  0.60062539     0.10500
H2722       H  0.64568983  0.84230036  0.59852977     0.11600
H2723       H  0.63458104  0.95220959  0.64125244     0.11700
H2724       H  0.62683826  0.95286070  0.60319247     0.13600
H2725       H  0.60998926  0.00554194  0.59639227     0.10100
H2726       H  0.60594238  0.06687464  0.59956464     0.12200
H2727       H  0.63915104  0.06552603  0.64366977     0.08800
H2728       H  0.64359120  0.00538623  0.64020244     0.11600
C2729       C  0.63828677  0.33323739  0.62385117    -0.03000
C2730       C  0.63409977  0.34944867  0.63916174    -0.05600
C2731       C  0.63369418  0.38467914  0.64016830    -0.20700
C2732       C  0.63704825  0.40458369  0.62581058     0.25000
C2733       C  0.64185647  0.38850486  0.61054651    -0.18300
C2734       C  0.64259737  0.35299058  0.60962380    -0.08200
C2735       C  0.63551476  0.44189708  0.62754854    -0.18500
C2736       C  0.63110825  0.46285389  0.61477887    -0.23300
C2737       C  0.62857216  0.49996613  0.61725546     0.27100
C2738       C  0.61825208  0.51818166  0.60574398    -0.20100
C2739       C  0.61590911  0.55322528  0.60758355    -0.09700
C2740       C  0.62390740  0.57079144  0.62098221    -0.10300
C2741       C  0.63413054  0.55245995  0.63253841    -0.03200
C2742       C  0.63655611  0.51763492  0.63063941    -0.18300
H2743       H  0.63083545  0.33476848  0.65034142     0.10800
H2744       H  0.63020028  0.39642454  0.65211793     0.10800
H2745       H  0.64499695  0.40321686  0.59936485     0.10500
H2746       H  0.64583089  0.34099260  0.59767481     0.11600
H2747       H  0.63663082  0.45192689  0.64029630     0.11700
H2748       H  0.62830274  0.45233707  0.60236495     0.13600
H2749       H  0.61204367  0.50528118  0.59525444     0.10100
H2750       H  0.60809868  0.56661915  0.59835040     0.12200
H2751       H  0.64075247  0.56518019  0.64283451     0.08800
H2752       H  0.64513280  0.50501333  0.63945074     0.11600
C2753       C  0.80908789  0.08699363  0.62003623    -0.03000
C2754       C  0.80516942  0.11771156  0.62830295    -0.05600
C2755       C  0.78872590  0.13242206  0.62693522    -0.20700
C2756       C  0.77556315  0.11659850  0.61759388     0.25000
C2757       C  0.77926944  0.08569210  0.60937933    -0.18300
C2758       C  0.79594863  0.07114321  0.61049322    -0.08200
C2759       C  0.75832963  0.13363871  0.61654860    -0.18500
C2760       C  0.74315778  0.11663651  0.61595102    -0.23300
C2761       C  0.72595446  0.13378818  0.61737298     0.27100
C2762       C  0.71230691  0.11671891  0.62555870    -0.20100
C2763       C  0.69602667  0.13203707  0.62749417    -0.09700
C2764       C  0.69282401  0.16463496  0.62094381    -0.10300
C2765       C  0.70638758  0.18157864  0.61242211    -0.03200
C2766       C  0.72285126  0.16641635  0.61075879    -0.18300
H2767       H  0.81495872  0.13094267  0.63562033     0.10800
H2768       H  0.78624063  0.15625248  0.63332582     0.10800
H2769       H  0.76944793  0.07318447  0.60180691     0.10500
H2770       H  0.79857935  0.04768098  0.60384676     0.11600
H2771       H  0.75808607  0.16099926  0.61809555     0.11700
H2772       H  0.74334207  0.08910229  0.61617210     0.13600
H2773       H  0.71430962  0.09153091  0.63067022     0.10100
H2774       H  0.68581275  0.11797385  0.63388630     0.12200
H2775       H  0.70427593  0.20650664  0.60706636     0.08800
H2776       H  0.73301098  0.17997513  0.60404316     0.11600
C2777       C  0.56012309  0.22634745  0.62047158    -0.03000
C2778       C  0.55441807  0.25816817  0.62629598    -0.05600
C2779       C  0.53679945  0.26691918  0.62579329    -0.20700
C2780       C  0.52432786  0.24396575  0.61975161     0.25000
C2781       C  0.52996417  0.21210346  0.61380080    -0.18300
C2782       C  0.54770351  0.20346040  0.61410414    -0.08200
C2783       C  0.50570757  0.25463386  0.61965956    -0.18500
C2784       C  0.49226227  0.23276264  0.62074056    -0.23300
C2785       C  0.47374307  0.24370476  0.62232192     0.27100
C2786       C  0.46190778  0.22198876  0.63046248    -0.20100
C2787       C  0.44446264  0.23126910  0.63251288    -0.09700
C2788       C  0.43828309  0.26236846  0.62620966    -0.10300
C2789       C  0.45002382  0.28389716  0.61770587    -0.03200
C2790       C  0.46759033  0.27474019  0.61582105    -0.18300
H2791       H  0.56361863  0.27658398  0.63112261     0.10800
H2792       H  0.53287019  0.29168728  0.63033051     0.10800
H2793       H  0.52078937  0.19404129  0.60864869     0.10500
H2794       H  0.55168424  0.17884942  0.60942063     0.11600
H2795       H  0.50310075  0.28165986  0.62010580     0.11700
H2796       H  0.49493596  0.20584766  0.62190989     0.13600
H2797       H  0.46622377  0.19783435  0.63545175     0.10100
H2798       H  0.43575853  0.21382253  0.63892486     0.12200
H2799       H  0.44564726  0.30784216  0.61254122     0.08800
H2800       H  0.47620456  0.29175347  0.60904496     0.11600
C2801       C  0.62738600  0.81172986  0.05590525    -0.03000
C2802       C  0.61594183  0.83360263  0.04734588    -0.05600
C2803       C  0.61605380  0.83551967  0.02965937    -0.20700
C2804       C  0.62745998  0.81545796  0.02000434     0.25000
C2805       C  0.63905786  0.79372780  0.02854216    -0.18300
C2806       C  0.63899210  0.79189929  0.04628910    -0.08200
C2807       C  0.62693068  0.81871392  0.00117942    -0.18500
C2808       C  0.63322096  0.79529948  0.99029773    -0.23300
C2809       C  0.63185802  0.79790891  0.97146496     0.27100
C2810       C  0.64236317  0.77675952  0.96140429    -0.20100
C2811       C  0.64113221  0.77734083  0.94370744    -0.09700
C2812       C  0.62922257  0.79896264  0.93560381    -0.10300
C2813       C  0.61869846  0.82015767  0.94564202    -0.03200
C2814       C  0.61994396  0.81961947  0.96333126    -0.18300
H2815       H  0.60689588  0.84944029  0.05431203     0.10800
H2816       H  0.60706532  0.85265564  0.02347549     0.10800
H2817       H  0.64842137  0.77850885  0.02168780     0.10500
H2818       H  0.64807701  0.77499329  0.05247496     0.11600
H2819       H  0.62064964  0.84121731  0.99624790     0.11700
H2820       H  0.63955569  0.77284915  0.99524683     0.13600
H2821       H  0.65156138  0.75960016  0.96726959     0.10100
H2822       H  0.64941730  0.76059728  0.93639006     0.12200
H2823       H  0.60934367  0.83705681  0.93983748     0.08800
H2824       H  0.61120235  0.83569421  0.97044629     0.11600
C2825       C  0.80398514  0.92182094  0.86631700    -0.03000
C2826       C  0.80039331  0.89050060  0.85850384    -0.05600
C2827       C  0.78409368  0.87514885  0.86017627    -0.20700
C2828       C  0.77072986  0.89087415  0.86937380     0.25000
C2829       C  0.77409399  0.92244547  0.87708050    -0.18300
C2830       C  0.79062780  0.93765125  0.87566440    -0.08200
C2831       C  0.75368782  0.87299662  0.87082279    -0.18500
C2832       C  0.73829790  0.88919542  0.87170548    -0.23300
C2833       C  0.72124171  0.87124523  0.87068549     0.27100
C2834       C  0.70721642  0.88793428  0.86303490    -0.20100
C2835       C  0.69101230  0.87208108  0.86156854    -0.09700
C2836       C  0.68824531  0.83926847  0.86806752    -0.10300
C2837       C  0.70221910  0.82260517  0.87598495    -0.03200
C2838       C  0.71860437  0.83833461  0.87718613    -0.18300
H2839       H  0.81036258  0.87722056  0.85139455     0.10800
H2840       H  0.78189738  0.85082040  0.85417620     0.10800
H2841       H  0.76414769  0.93495777  0.88454650     0.10500
H2842       H  0.79300759  0.96153056  0.88201340     0.11600
H2843       H  0.75375963  0.84561315  0.86938491     0.11700
H2844       H  0.73813912  0.91672271  0.87143811     0.13600
H2845       H  0.70884697  0.91330178  0.85800457     0.10100
H2846       H  0.68051286  0.88593038  0.85560377     0.12200
H2847       H  0.70047578  0.79749715  0.88127867     0.08800
H2848       H  0.72905447  0.82500046  0.88348943     0.11600
C2849       C  0.55692780  0.77034711  0.87814819    -0.03000
C2850       C  0.55138270  0.73857531  0.87208188    -0.05600
C2851       C  0.53420823  0.72774114  0.87440214    -0.20700
C2852       C  0.52199624  0.74854159  0.88255774     0.25000
C2853       C  0.52750011  0.78022225  0.88884423    -0.18300
C2854       C  0.54482290  0.79093477  0.88671619    -0.08200
C2855       C  0.50373246  0.73615685  0.88424648    -0.18500
C2856       C  0.48986290  0.75700972  0.88448414    -0.23300
C2857       C  0.47151862  0.74476102  0.88393954     0.27100
C2858       C  0.45899496  0.76542542  0.87623943    -0.20100
C2859       C  0.44164759  0.75500209  0.87516385    -0.09700
C2860       C  0.43624035  0.72379414  0.88205770    -0.10300
C2861       C  0.44870469  0.70325550  0.89009305    -0.03200
C2862       C  0.46620526  0.71354654  0.89096103    -0.18300
H2863       H  0.56037410  0.72183286  0.86559822     0.10800
H2864       H  0.53037482  0.70315810  0.86954981     0.10800
H2865       H  0.51853823  0.79656918  0.89558517     0.10500
H2866       H  0.54870554  0.81537939  0.89167521     0.11600
H2867       H  0.50160624  0.70896470  0.88362993     0.11700
H2868       H  0.49196360  0.78415179  0.88341073     0.13600
H2869       H  0.46269046  0.78964876  0.87083337     0.10100
H2870       H  0.43240775  0.77171087  0.86905690     0.12200
H2871       H  0.44494262  0.67925675  0.89568078     0.08800
H2872       H  0.47545055  0.69733005  0.89735843     0.11600
C2873       C  0.61813495  0.78506739  0.80335449    -0.03000
C2874       C  0.60262679  0.77232680  0.79641033    -0.05600
C2875       C  0.60177008  0.76347215  0.77928686    -0.20700
C2876       C  0.61649979  0.76626682  0.76880996     0.25000
C2877       C  0.63198370  0.77958182  0.77564521    -0.18300
C2878       C  0.63274082  0.78912310  0.79275085    -0.08200
C2879       C  0.61499725  0.75606236  0.75074161    -0.18500
C2880       C  0.62839537  0.74371691  0.74154674    -0.23300
C2881       C  0.62668927  0.73347498  0.72345321     0.27100
C2882       C  0.63835488  0.70965168  0.71661994    -0.20100
C2883       C  0.63763415  0.70078909  0.69942790    -0.09700
C2884       C  0.62536953  0.71600567  0.68864085    -0.10300
C2885       C  0.61356312  0.73952844  0.69555378    -0.03200
C2886       C  0.61421744  0.74820586  0.71271060    -0.18300
H2887       H  0.59114716  0.76905241  0.80426690     0.10800
H2888       H  0.58963779  0.75370151  0.77428213     0.10800
H2889       H  0.64344519  0.78291975  0.76779354     0.10500
H2890       H  0.64487760  0.79876464  0.79779690     0.11600
H2891       H  0.60208437  0.75687936  0.74519566     0.11700
H2892       H  0.64089703  0.73969747  0.74762712     0.13600
H2893       H  0.64815761  0.69807151  0.72458528     0.10100
H2894       H  0.64700036  0.68277495  0.69449410     0.12200
H2895       H  0.60401026  0.75190209  0.68760635     0.08800
H2896       H  0.60530871  0.76734662  0.71732514     0.11600
C2897       C  0.62277290  0.30364703  0.93648630    -0.03000
C2898       C  0.61031454  0.32328185  0.94514066    -0.05600
C2899       C  0.61003810  0.32442287  0.96284138    -0.20700
C2900       C  0.62211441  0.30591114  0.97242455     0.25000
C2901       C  0.63467755  0.28632510  0.96377790    -0.18300
C2902       C  0.63495028  0.28518065  0.94602257    -0.08200
C2903       C  0.62132798  0.30883565  0.99127197    -0.18500
C2904       C  0.62965118  0.28803775  0.00213039    -0.23300
C2905       C  0.62895448  0.29194304  0.02091235     0.27100
C2906       C  0.64240704  0.27789656  0.03064464    -0.20100
C2907       C  0.64237826  0.28097673  0.04830481    -0.09700
C2908       C  0.62878082  0.29802878  0.05671774    -0.10300
C2909       C  0.61513347  0.31160814  0.04701211    -0.03200
C2910       C  0.61516537  0.30851741  0.02932939    -0.18300
H2911       H  0.60074815  0.33791863  0.93824281     0.10800
H2912       H  0.60027977  0.33988869  0.96908731     0.10800
H2913       H  0.64454116  0.27228858  0.97051429     0.10500
H2914       H  0.64479604  0.26997399  0.93976701     0.11600
H2915       H  0.61349566  0.32938571  0.99632545     0.11700
H2916       H  0.63771835  0.26769840  0.99726215     0.13600
H2917       H  0.65310064  0.26471712  0.02453740     0.10100
H2918       H  0.65305505  0.27000639  0.05535687     0.12200
H2919       H  0.60432941  0.32446894  0.05308462     0.08800
H2920       H  0.60421016  0.31864681  0.02241388     0.11600
C2921       C  0.63410959  0.66952010  0.86583486    -0.03000
C2922       C  0.62832887  0.65374760  0.85090708    -0.05600
C2923       C  0.62826781  0.61854555  0.84949138    -0.20700
C2924       C  0.63358865  0.59823794  0.86307816     0.25000
C2925       C  0.63989002  0.61391407  0.87789679    -0.18300
C2926       C  0.64025415  0.64937041  0.87920287    -0.08200
C2927       C  0.63234059  0.56092350  0.86118390    -0.18500
C2928       C  0.62914166  0.53979083  0.87422052    -0.23300
C2929       C  0.62627996  0.50279701  0.87192037     0.27100
C2930       C  0.61631813  0.48511896  0.88396992    -0.20100
C2931       C  0.61345243  0.45026264  0.88230743    -0.09700
C2932       C  0.62064452  0.43220218  0.86859870    -0.10300
C2933       C  0.63063092  0.44993405  0.85652715    -0.03200
C2934       C  0.63347523  0.48477245  0.85818642    -0.18300
H2935       H  0.62361125  0.66870820  0.84036772     0.10800
H2936       H  0.62353278  0.60709899  0.83789210     0.10800
H2937       H  0.64450606  0.59890559  0.88843830     0.10500
H2938       H  0.64472415  0.66097057  0.89085221     0.11600
H2939       H  0.63243894  0.55101926  0.84834090     0.11700
H2940       H  0.62729641  0.55020498  0.88685144     0.13600
H2941       H  0.61072420  0.49834006  0.89472297     0.10100
H2942       H  0.60587953  0.43736670  0.89195912     0.12200
H2943       H  0.63663355  0.43675799  0.84598180     0.08800
H2944       H  0.64169474  0.49721846  0.84891614     0.11600
C2945       C  0.62714076  0.16810414  0.87343936    -0.03000
C2946       C  0.63822120  0.15018459  0.88439889    -0.05600
C2947       C  0.63716737  0.11471938  0.88552763    -0.20700
C2948       C  0.62517461  0.09651868  0.87561639     0.25000
C2949       C  0.61418371  0.11456893  0.86463152    -0.18300
C2950       C  0.61523942  0.14974943  0.86349467    -0.08200
C2951       C  0.62385472  0.05899766  0.87739384    -0.18500
C2952       C  0.61767155  0.03899623  0.86491830    -0.23300
C2953       C  0.61608630  0.00155889  0.86613164     0.27100
C2954       C  0.61646819  0.98267859  0.85107520    -0.20100
C2955       C  0.61537954  0.94738574  0.85146602    -0.09700
C2956       C  0.61351810  0.93010328  0.86693263    -0.10300
C2957       C  0.61233448  0.94900898  0.88200674    -0.03200
C2958       C  0.61369293  0.98445849  0.88163367    -0.18300
H2959       H  0.64744534  0.16356704  0.89231495     0.10800
H2960       H  0.64569341  0.10146961  0.89419822     0.10800
H2961       H  0.60433738  0.10184174  0.85720697     0.10500
H2962       H  0.60639861  0.16262506  0.85498582     0.11600
H2963       H  0.62868467  0.04759047  0.88898329     0.11700
H2964       H  0.61452225  0.05017649  0.85274488     0.13600
H2965       H  0.61804542  0.99525202  0.83895520     0.10100
H2966       H  0.61628099  0.93354429  0.83963874     0.12200
H2967       H  0.61097712  0.93634075  0.89412122     0.08800
H2968       H  0.61282253  0.99832168  0.89344111     0.11600
C2969       C  0.68811850  0.32949964  0.86855498    -0.03000
C2970       C  0.69239285  0.35888334  0.85928993    -0.05600
C2971       C  0.70867034  0.37418108  0.86097715    -0.20700
C2972       C  0.72128767  0.36022837  0.87166441     0.25000
C2973       C  0.71732572  0.33026669  0.88062405    -0.18300
C2974       C  0.70082681  0.31515405  0.87915385    -0.08200
C2975       C  0.73811976  0.37845271  0.87349734    -0.18500
C2976       C  0.75328924  0.36266517  0.87650299    -0.23300
C2977       C  0.77024149  0.38078980  0.87616217     0.27100
C2978       C  0.78472863  0.36408091  0.86935860    -0.20100
C2979       C  0.80083107  0.38035465  0.86836887    -0.09700
C2980       C  0.80298819  0.41355641  0.87455850    -0.10300
C2981       C  0.78858091  0.43013331  0.88180224    -0.03200
C2982       C  0.77227029  0.41399887  0.88244778    -0.18300
H2983       H  0.68292588  0.37090529  0.85111338     0.10800
H2984       H  0.71138378  0.39720735  0.85395339     0.10800
H2985       H  0.72669991  0.31915958  0.88919585     0.10500
H2986       H  0.69790410  0.29272746  0.88655559     0.11600
H2987       H  0.73824165  0.40547049  0.87080456     0.11700
H2988       H  0.75352882  0.33520172  0.87745172     0.13600
H2989       H  0.78351923  0.33847520  0.86453411     0.10100
H2990       H  0.81171759  0.36661093  0.86295350     0.12200
H2991       H  0.78989404  0.45555435  0.88681420     0.08800
H2992       H  0.76134961  0.42726153  0.88807403     0.11600
C2993       C  0.55402331  0.28634910  0.87423159    -0.03000
C2994       C  0.54304056  0.31075126  0.88163642    -0.05600
C2995       C  0.52511258  0.30473355  0.88314071    -0.20700
C2996       C  0.51787491  0.27397483  0.87762259     0.25000
C2997       C  0.52881734  0.24972186  0.87007093    -0.18300
C2998       C  0.54665945  0.25588482  0.86836160    -0.08200
C2999       C  0.49879666  0.26841335  0.87911080    -0.18500
C3000       C  0.49169045  0.23745539  0.88132250    -0.23300
C3001       C  0.47258983  0.23144618  0.88180035     0.27100
C3002       C  0.46595979  0.20370698  0.89094161    -0.20100
C3003       C  0.44806200  0.19669836  0.89105829    -0.09700
C3004       C  0.43647032  0.21700512  0.88176339    -0.10300
C3005       C  0.44318890  0.24457620  0.87248439    -0.03200
C3006       C  0.46101023  0.25173858  0.87250858    -0.18300
H3007       H  0.54828487  0.33451834  0.88622640     0.10800
H3008       H  0.51689591  0.32398193  0.88880670     0.10800
H3009       H  0.52358577  0.22619029  0.86519705     0.10500
H3010       H  0.55471627  0.23656932  0.86254737     0.11600
H3011       H  0.49044393  0.29061058  0.87890796     0.11700
H3012       H  0.50014246  0.21575345  0.88329231     0.13600
H3013       H  0.47465691  0.18748587  0.89805662     0.10100
H3014       H  0.44333421  0.17524403  0.89830514     0.12200
H3015       H  0.43466978  0.26068921  0.86511957     0.08800
H3016       H  0.46571139  0.27268616  0.86489995     0.11600
C3017       C  0.61808358  0.28081793  0.80405555    -0.03000
C3018       C  0.60404080  0.26182409  0.79770391    -0.05600
C3019       C  0.60327446  0.25314664  0.78055651    -0.20700
C3020       C  0.61670579  0.26248703  0.76941605     0.25000
C3021       C  0.63071845  0.28179333  0.77564435    -0.18300
C3022       C  0.63133073  0.29107573  0.79279868    -0.08200
C3023       C  0.61531188  0.25266329  0.75130463    -0.18500
C3024       C  0.62919008  0.24490305  0.74156816    -0.23300
C3025       C  0.62754191  0.23440565  0.72353122     0.27100
C3026       C  0.64007975  0.21272063  0.71640286    -0.20100
C3027       C  0.63925619  0.20359288  0.69925748    -0.09700
C3028       C  0.62605104  0.21657916  0.68880901    -0.10300
C3029       C  0.61341361  0.23803983  0.69600914    -0.03200
C3030       C  0.61412237  0.24681631  0.71315503    -0.18300
H3031       H  0.59358593  0.25365359  0.80600738     0.10800
H3032       H  0.59226874  0.23857056  0.77602204     0.10800
H3033       H  0.64106711  0.29007485  0.76725147     0.10500
H3034       H  0.64231512  0.30571882  0.79731157     0.11600
H3035       H  0.60229423  0.24952506  0.74619152     0.11700
H3036       H  0.64208834  0.24462967  0.74718814     0.13600
H3037       H  0.65059620  0.20296798  0.72410892     0.10100
H3038       H  0.64926903  0.18725136  0.69406941     0.12200
H3039       H  0.60311371  0.24862684  0.68830190     0.08800
H3040       H  0.60447562  0.26423162  0.71808594     0.11600
loop_ 
_geom_bond_atom_site_label_1 
_geom_bond_atom_site_label_2 
_geom_bond_distance 
_geom_bond_site_symmetry_2 
_ccdc_geom_bond_type 
O1           C17   1.274       .  A
O1           Zn7   2.012       .  S
C2           O18   1.274       .  A
C2           O15   1.276       .  A
C2         C3017   1.484       .  S
O3           C16   1.279       .  A
O3          Cd10   2.098       .  S
O4           C22   1.273       .  A
O4          Cd13   2.050       .  S
O5           C19   1.276       .  A
O5           Cd9   2.071       .  S
O6           C17   1.276       .  A
O6           Cd9   2.082       .  S
Zn7          O18   2.015       .  S
Zn7          O20   1.993       .  S
Zn7          O12   1.927       .  S
O8           C19   1.276       .  A
O8          Cd13   2.072       .  S
Cd9          O11   2.065       .  S
Cd9          O12   2.000       .  S
Cd10         O14   2.088       .  S
Cd10         O23   2.100       .  S
Cd10         O12   2.020       .  S
O11          C21   1.275       .  A
O12         Cd13   1.996       .  S
Cd13         O15   2.086       .  S
O14          C21   1.278       .  A
C16          O20   1.273       .  A
C16        C2945   1.485       .  S
C17        C2993   1.484       .  S
C19        C2932   1.484       .  S
C21        C2897   1.486       .  S
C22          O23   1.279       .  A
C22        C2969   1.485       .  S
O24          C40   1.273       .  A
O24         Zn30   2.003       .  S
C25          O41   1.273       .  A
C25          O38   1.276       .  A
C25        C2873   1.480       .  S
O26          C39   1.278       .  A
O26         Cd33   2.097       .  S
O27          C45   1.274       .  A
O27         Cd36   2.061       .  S
O28          C42   1.278       .  A
O28         Cd32   2.090       .  S
O29          C40   1.279       .  A
O29         Cd32   2.104       .  S
Zn30         O41   2.011       .  S
Zn30         O43   1.985       .  S
Zn30         O35   1.926       .  S
O31          C42   1.276       .  A
O31         Cd36   2.061       .  S
Cd32         O34   2.078       .  S
Cd32         O35   2.009       .  S
Cd33         O37   2.078       .  S
Cd33         O46   2.103       .  S
Cd33         O35   2.017       .  S
O34          C44   1.277       .  A
O35         Cd36   1.990       .  S
Cd36         O38   2.086       .  S
O37          C44   1.277       .  A
C39          O43   1.271       .  A
C39        C2921   1.476       .  S
C40        C2849   1.488       .  S
C42        C2956   1.480       .  S
C44        C2812   1.486       .  S
C45          O46   1.279       .  A
C45        C2836   1.488       .  S
O47          C63   1.274       .  A
O47         Zn53   2.012       .  S
C48          O64   1.273       .  A
C48          O61   1.276       .  A
C48        C3028   1.484       .  S
O49          C62   1.277       .  A
O49         Cd56   2.095       .  S
O50          C68   1.274       .  A
O50         Cd59   2.058       .  S
O51          C65   1.278       .  A
O51         Cd55   2.087       .  S
O52          C63   1.278       .  A
O52         Cd55   2.095       .  S
Zn53         O64   2.010       .  S
Zn53         O66   1.991       .  S
Zn53         O58   1.925       .  S
O54          C65   1.275       .  A
O54         Cd59   2.057       .  S
Cd55         O57   2.072       .  S
Cd55         O58   2.007       .  S
Cd56         O60   2.071       .  S
Cd56         O69   2.100       .  S
Cd56         O58   2.018       .  S
O57          C67   1.276       .  A
O58         Cd59   1.992       .  S
Cd59         O61   2.084       .  S
O60          C67   1.276       .  A
C62          O66   1.272       .  A
C62        C2729   1.475       .  S
C63        C2777   1.487       .  S
C65        C2716   1.484       .  S
C67        C2681   1.482       .  S
C68          O69   1.279       .  A
C68        C2764   1.486       .  S
O70          C86   1.274       .  A
O70         Zn76   2.012       .  S
C71          O87   1.273       .  A
C71          O84   1.275       .  A
C71        C2884   1.485       .  S
O72          C85   1.278       .  A
O72         Cd79   2.094       .  S
O73          C91   1.273       .  A
O73         Cd82   2.044       .  S
O74          C88   1.277       .  A
O74         Cd78   2.081       .  S
O75          C86   1.276       .  A
O75         Cd78   2.079       .  S
Zn76         O87   2.012       .  S
Zn76         O89   1.990       .  S
Zn76         O81   1.927       .  S
O77          C88   1.275       .  A
O77         Cd82   2.062       .  S
Cd78         O80   2.069       .  S
Cd78         O81   2.000       .  S
Cd79         O83   2.086       .  S
Cd79         O92   2.102       .  S
Cd79         O81   2.021       .  S
O80          C90   1.276       .  A
O81         Cd82   1.990       .  S
Cd82         O84   2.083       .  S
O83          C90   1.277       .  A
C85          O89   1.272       .  A
C85        C2705   1.475       .  S
C86        C2668   1.483       .  S
C88        C2740   1.484       .  S
C90        C2620   1.486       .  S
C91          O92   1.279       .  A
C91        C2633   1.481       .  S
O93         C109   1.274       .  A
O93         Zn99   2.005       .  S
C94         O110   1.272       .  A
C94         O107   1.275       .  A
C94        C2585   1.482       .  S
O95         C108   1.279       .  A
O95        Cd102   2.102       .  S
O96         C114   1.272       .  A
O96        Cd105   2.039       .  S
O97         C111   1.278       .  A
O97        Cd101   2.088       .  S
O98         C109   1.277       .  A
O98        Cd101   2.089       .  S
Zn99        O110   2.005       .  S
Zn99        O112   1.985       .  S
Zn99        O104   1.925       .  S
O100        C111   1.274       .  A
O100       Cd105   2.057       .  S
Cd101       O103   2.080       .  S
Cd101       O104   2.006       .  S
Cd102       O106   2.081       .  S
Cd102       O115   2.107       .  S
Cd102       O104   2.020       .  S
O103        C113   1.278       .  A
O104       Cd105   1.988       .  S
Cd105       O107   2.078       .  S
O106        C113   1.278       .  A
C108        O112   1.271       .  A
C108       C2548   1.476       .  S
C109       C3004   1.485       .  S
C111       C2513   1.481       .  S
C113       C2489   1.488       .  S
C114        O115   1.279       .  A
C114       C2572   1.482       .  S
O116        C132   1.274       .  A
O116       Zn122   2.006       .  S
C117        O133   1.275       .  A
C117        O130   1.275       .  A
C117       C2465   1.484       .  S
O118        C131   1.279       .  A
O118       Cd125   2.100       .  S
O119        C137   1.273       .  A
O119       Cd128   2.050       .  S
O120        C134   1.279       .  A
O120       Cd124   2.094       .  S
O121        C132   1.278       .  A
O121       Cd124   2.100       .  S
Zn122       O133   2.021       .  S
Zn122       O135   1.992       .  S
Zn122       O127   1.928       .  S
O123        C134   1.274       .  A
O123       Cd128   2.053       .  S
Cd124       O126   2.075       .  S
Cd124       O127   2.011       .  S
Cd125       O129   2.076       .  S
Cd125       O138   2.110       .  S
Cd125       O127   2.021       .  S
O126        C136   1.277       .  A
O127       Cd128   1.987       .  S
Cd128       O130   2.075       .  S
O129        C136   1.277       .  A
C131        O135   1.272       .  A
C131       C2524   1.485       .  S
C132       C2860   1.488       .  S
C134       C2537   1.486       .  S
C136       C2428   1.484       .  S
C137        O138   1.279       .  A
C137       C2441   1.484       .  S
O139        C155   1.273       .  A
O139       Zn145   2.010       .  S
C140        O156   1.273       .  A
C140        O153   1.276       .  A
C140       C2596   1.480       .  S
O141        C154   1.277       .  A
O141       Cd148   2.087       .  S
O142        C160   1.275       .  A
O142       Cd151   2.073       .  S
O143        C157   1.277       .  A
O143       Cd147   2.081       .  S
O144        C155   1.277       .  A
O144       Cd147   2.093       .  S
Zn145       O156   2.003       .  S
Zn145       O158   1.983       .  S
Zn145       O150   1.924       .  S
O146        C157   1.275       .  A
O146       Cd151   2.062       .  S
Cd147       O149   2.069       .  S
Cd147       O150   2.005       .  S
Cd148       O152   2.064       .  S
Cd148       O161   2.089       .  S
Cd148       O150   2.011       .  S
O149        C159   1.276       .  A
O150       Cd151   1.994       .  S
Cd151       O153   2.082       .  S
O152        C159   1.275       .  A
C154        O158   1.271       .  A
C154       C2380   1.478       .  S
C155       C2788   1.487       .  S
C157       C2356   1.478       .  S
C159       C2321   1.477       .  S
C160        O161   1.278       .  A
C160       C2404   1.486       .  S
O162        C178   1.274       .  A
O162       Zn168   2.014       .  S
C163        O179   1.274       .  A
C163        O176   1.275       .  A
C163       C2476   1.482       .  S
O164        C177   1.279       .  A
O164       Cd171   2.098       .  S
O165        C183   1.274       .  A
O165       Cd174   2.055       .  S
O166        C180   1.276       .  A
O166       Cd170   2.072       .  S
O167        C178   1.275       .  A
O167       Cd170   2.077       .  S
Zn168       O179   2.018       .  S
Zn168       O181   1.992       .  S
Zn168       O173   1.930       .  S
O169        C180   1.274       .  A
O169       Cd174   2.058       .  S
Cd170       O172   2.066       .  S
Cd170       O173   2.000       .  S
Cd171       O175   2.088       .  S
Cd171       O184   2.105       .  S
Cd171       O173   2.017       .  S
O172        C182   1.275       .  A
O173       Cd174   1.991       .  S
Cd174       O176   2.080       .  S
O175        C182   1.278       .  A
C177        O181   1.273       .  A
C177       C2345   1.482       .  S
C178       C2657   1.484       .  S
C180       C2369   1.478       .  S
C182       C2273   1.486       .  S
C183        O184   1.280       .  A
C183       C2308   1.487       .  S
O185        C201   1.273       .  A
O185       Zn191   2.006       .  S
C186        O202   1.275       .  A
C186        O199   1.276       .  A
C186       C2249   1.484       .  S
O187        C200   1.279       .  A
O187       Cd194   2.102   1_565  S
O188        C206   1.273       .  A
O188       Cd197   2.050       .  S
O189        C203   1.277       .  A
O189       Cd193   2.085       .  S
O190        C201   1.277       .  A
O190       Cd193   2.091       .  S
Zn191       O202   2.021       .  S
Zn191       O204   1.985   1_545  S
Zn191       O196   1.929       .  S
O192        C203   1.275       .  A
O192       Cd197   2.063       .  S
Cd193       O195   2.074       .  S
Cd193       O196   2.005       .  S
Cd194       O198   2.081       .  S
Cd194       O207   2.110       .  S
Cd194       O196   2.023       .  S
O195        C205   1.277       .  A
O196       Cd197   1.987       .  S
Cd197       O199   2.076       .  S
O198        C205   1.277       .  A
C200        O204   1.271       .  A
C200       C2188   1.475       .  S
C201       C2225   1.486       .  S
C203       C2201   1.483       .  S
C205       C2164   1.485       .  S
C206        O207   1.280       .  A
C206       C2753   1.488       .  S
O208        C224   1.273       .  A
O208       Zn214   2.006       .  S
C209        O225   1.273       .  A
C209        O222   1.277       .  A
C209       C2140   1.482       .  S
O210        C223   1.279       .  A
O210       Cd217   2.099       .  S
O211        C229   1.274       .  A
O211       Cd220   2.059       .  S
O212        C226   1.277       .  A
O212       Cd216   2.077       .  S
O213        C224   1.276       .  A
O213       Cd216   2.083       .  S
Zn214       O225   2.008       .  S
Zn214       O227   1.990       .  S
Zn214       O219   1.926       .  S
O215        C226   1.276       .  A
O215       Cd220   2.071       .  S
Cd216       O218   2.065       .  S
Cd216       O219   2.001       .  S
Cd217       O221   2.078       .  S
Cd217       O230   2.089       .  S
Cd217       O219   2.015       .  S
O218        C228   1.275       .  A
O219       Cd220   1.997       .  S
Cd220       O222   2.086       .  S
O221        C228   1.276       .  A
C223        O227   1.272       .  A
C223       C2212   1.485       .  S
C224       C2105   1.484       .  S
C226       C2177   1.485       .  S
C228       C2081   1.481       .  S
C229        O230   1.278       .  A
C229       C2644   1.485       .  S
O231        C247   1.271       .  A
O231       Zn237   1.990       .  S
C232        O248   1.272       .  A
C232        O245   1.275       .  A
C232       C2129   1.483       .  S
O233        C246   1.278       .  A
O233       Cd240   2.102       .  S
O234        C252   1.273       .  A
O234       Cd243   2.048       .  S
O235        C249   1.280       .  A
O235       Cd239   2.100       .  S
O236        C247   1.279       .  A
O236       Cd239   2.105       .  S
Zn237       O248   2.010       .  S
Zn237       O250   1.973       .  S
Zn237       O242   1.919       .  S
O238        C249   1.274       .  A
O238       Cd243   2.051       .  S
Cd239       O241   2.090       .  S
Cd239       O242   2.013       .  S
Cd240       O244   2.078       .  S
Cd240       O253   2.105       .  S
Cd240       O242   2.021       .  S
O241        C251   1.279       .  A
O242       Cd243   1.987       .  S
Cd243       O245   2.081       .  S
O244        C251   1.277       .  A
C246        O250   1.270       .  A
C246       C2009   1.481       .  S
C247       C2057   1.484       .  S
C249       C2044   1.486       .  S
C251       C1985   1.489       .  S
C252        O253   1.279       .  A
C252       C2980   1.483       .  S
O254        C270   1.273       .  A
O254       Zn260   2.008       .  S
C255        O271   1.275       .  A
C255        O268   1.276       .  A
C255       C2260   1.480       .  S
O256        C269   1.279       .  A
O256       Cd263   2.098   1_545  S
O257        C275   1.274       .  A
O257       Cd266   2.057       .  S
O258        C272   1.277       .  A
O258       Cd262   2.075       .  S
O259        C270   1.277       .  A
O259       Cd262   2.093       .  S
Zn260       O271   2.022       .  S
Zn260       O273   1.996   1_565  S
Zn260       O265   1.925       .  S
O261        C272   1.275       .  A
O261       Cd266   2.062       .  S
Cd262       O264   2.073       .  S
Cd262       O265   2.004       .  S
Cd263       O267   2.067       .  S
Cd263       O276   2.107       .  S
Cd263       O265   2.013       .  S
O264        C274   1.276       .  A
O265       Cd266   1.986       .  S
Cd266       O268   2.074       .  S
O267        C274   1.275       .  A
C269        O273   1.273       .  A
C269       C2033   1.480       .  S
C270       C1972   1.487       .  S
C272       C2020   1.480       .  S
C274       C1937   1.482       .  S
C275        O276   1.279       .  A
C275       C2825   1.490       .  S
O277        C293   1.274       .  A
O277       Zn283   2.009       .  S
C278        O294   1.275       .  A
C278        O291   1.275       .  A
C278       C1913   1.484       .  S
O279        C292   1.279       .  A
O279       Cd286   2.095   1_565  S
O280        C298   1.273       .  A
O280       Cd289   2.053       .  S
O281        C295   1.278       .  A
O281       Cd285   2.088       .  S
O282        C293   1.278       .  A
O282       Cd285   2.095       .  S
Zn283       O294   2.025       .  S
Zn283       O296   1.987   1_545  S
Zn283       O288   1.924       .  S
O284        C295   1.275       .  A
O284       Cd289   2.053       .  S
Cd285       O287   2.082       .  S
Cd285       O288   2.003       .  S
Cd286       O290   2.070       .  S
Cd286       O299   2.095       .  S
Cd286       O288   2.010       .  S
O287        C297   1.278       .  A
O288       Cd289   1.984       .  S
Cd289       O291   2.071       .  S
O290        C297   1.276       .  A
C292        O296   1.273       .  A
C292       C1865   1.482       .  S
C293       C1961   1.486       .  S
C295       C1889   1.483       .  S
C297       C1852   1.485       .  S
C298        O299   1.278       .  A
C298       C2561   1.486       .  S
O300        C316   1.273       .  A
O300       Zn306   2.013       .  S
C301        O317   1.274       .  A
C301        O314   1.277       .  A
C301       C1817   1.484       .  S
O302        C315   1.279       .  A
O302       Cd309   2.098       .  S
O303        C321   1.274       .  A
O303       Cd312   2.057       .  S
O304        C318   1.276       .  A
O304       Cd308   2.070       .  S
O305        C316   1.275       .  A
O305       Cd308   2.084       .  S
Zn306       O317   2.015       .  S
Zn306       O319   1.990       .  S
Zn306       O311   1.928       .  S
O307        C318   1.276       .  A
O307       Cd312   2.070       .  S
Cd308       O310   2.071       .  S
Cd308       O311   2.003       .  S
Cd309       O313   2.080       .  S
Cd309       O322   2.103       .  S
Cd309       O311   2.021       .  S
O310        C320   1.276       .  A
O311       Cd312   1.995       .  S
Cd312       O314   2.088       .  S
O313        C320   1.277       .  A
C315        O319   1.272       .  A
C315       C1900   1.478       .  S
C316       C2068   1.486       .  S
C318       C1876   1.478       .  S
C320       C1793   1.483       .  S
C321        O322   1.279       .  A
C321       C2452   1.490       .  S
O323        C339   1.273       .  A
O323       Zn329   2.005       .  S
C324        O340   1.274       .  A
C324        O337   1.275       .  A
C324       C1828   1.483       .  S
O325        C338   1.277       .  A
O325       Cd332   2.090       .  S
O326        C344   1.274       .  A
O326       Cd335   2.059       .  S
O327        C341   1.277       .  A
O327       Cd331   2.080       .  S
O328        C339   1.276       .  A
O328       Cd331   2.087       .  S
Zn329       O340   2.019       .  S
Zn329       O342   1.989       .  S
Zn329       O334   1.928       .  S
O330        C341   1.275       .  A
O330       Cd335   2.055       .  S
Cd331       O333   2.071       .  S
Cd331       O334   2.009       .  S
Cd332       O336   2.077       .  S
Cd332       O345   2.096       .  S
Cd332       O334   2.016       .  S
O333        C343   1.276       .  A
O334       Cd335   1.992       .  S
Cd335       O337   2.080       .  S
O336        C343   1.276       .  A
C338        O342   1.272       .  A
C338       C1756   1.481       .  S
C339       C2116   1.483       .  S
C341       C1780   1.481       .  S
C343       C1721   1.482       .  S
C344        O345   1.279       .  A
C344       C2393   1.487       .  S
O346        C362   1.273       .  A
O346       Zn352   2.000       .  S
C347        O363   1.272       .  A
C347        O360   1.276       .  A
C347       C1924   1.483       .  S
O348        C361   1.277       .  A
O348       Cd355   2.087   1_545  S
O349        C367   1.275       .  A
O349       Cd358   2.066       .  S
O350        C364   1.278       .  A
O350       Cd354   2.083       .  S
O351        C362   1.278       .  A
O351       Cd354   2.100       .  S
Zn352       O363   2.007       .  S
Zn352       O365   1.988   1_565  S
Zn352       O357   1.928       .  S
O353        C364   1.275       .  A
O353       Cd358   2.059       .  S
Cd354       O356   2.082       .  S
Cd354       O357   2.011       .  S
Cd355       O359   2.078       .  S
Cd355       O368   2.097       .  S
Cd355       O357   2.013       .  S
O356        C366   1.277       .  A
O357       Cd358   1.995       .  S
Cd358       O360   2.086       .  S
O359        C366   1.277       .  A
C361        O365   1.272       .  A
C361       C1769   1.473       .  S
C362       C2236   1.486       .  S
C364       C1745   1.479       .  S
C366       C1697   1.487       .  S
C367        O368   1.279       .  A
C367       C2297   1.487       .  S
O369        C385   1.274       .  A
O369       Zn375   2.022       .  S
C370        O386   1.275       .  A
C370        O383   1.278       .  A
C370       C1649   1.489       .  S
O371        C384   1.279       .  A
O371       Cd378   2.100       .  S
O372        C390   1.276       .  A
O372       Cd381   2.075       .  S
O373        C387   1.275       .  A
O373       Cd377   2.058       .  S
O374        C385   1.276       .  A
O374       Cd377   2.081       .  S
Zn375       O386   2.023       .  S
Zn375       O388   1.983       .  S
Zn375       O380   1.934       .  S
O376        C387   1.277       .  A
O376       Cd381   2.080       .  S
Cd377       O379   2.058       .  S
Cd377       O380   1.992       .  S
Cd378       O382   2.111       .  S
Cd378       O391   2.085       .  S
Cd378       O380   2.021       .  S
O379        C389   1.274       .  A
O380       Cd381   2.004       .  S
Cd381       O383   2.090       .  S
O382        C389   1.280       .  A
C384        O388   1.272       .  A
C384       C1612   1.478       .  S
C385       C1673   1.487       .  S
C387       C1577   1.479       .  S
C389       C1636   1.491       .  S
C390        O391   1.278       .  A
C390       C2500   1.488       .  S
O392        C408   1.274       .  A
O392       Zn398   2.016       .  S
C393        O409   1.273       .  A
C393        O406   1.277       .  A
C393       C1540   1.482       .  S
O394        C407   1.277       .  A
O394       Cd401   2.092       .  S
O395        C413   1.276       .  A
O395       Cd404   2.071       .  S
O396        C410   1.275       .  A
O396       Cd400   2.065       .  S
O397        C408   1.275       .  A
O397       Cd400   2.075       .  S
Zn398       O409   2.004       .  S
Zn398       O411   1.987       .  S
Zn398       O403   1.928       .  S
O399        C410   1.276       .  A
O399       Cd404   2.076       .  S
Cd400       O402   2.047       .  S
Cd400       O403   1.992       .  S
Cd401       O405   2.092       .  S
Cd401       O414   2.073       .  S
Cd401       O403   2.016       .  S
O402        C412   1.272       .  A
O403       Cd404   2.002       .  S
Cd404       O406   2.082       .  S
O405        C412   1.278       .  A
C407        O411   1.272       .  A
C407       C1588   1.482       .  S
C408       C1564   1.482       .  S
C410       C1601   1.483       .  S
C412       C1516   1.482       .  S
C413        O414   1.276       .  A
C413       C2417   1.483       .  S
O415        C431   1.274       .  A
O415       Zn421   2.014       .  S
C416        O432   1.273       .  A
C416        O429   1.279       .  A
C416       C1420   1.483       .  S
O417        C430   1.278       .  A
O417       Cd424   2.096       .  S
O418        C436   1.278       .  A
O418       Cd427   2.084       .  S
O419        C433   1.275       .  A
O419       Cd423   2.068       .  S
O420        C431   1.274       .  A
O420       Cd423   2.067       .  S
Zn421       O432   1.992       .  S
Zn421       O434   2.001       .  S
Zn421       O426   1.929       .  S
O422        C433   1.278       .  A
O422       Cd427   2.088       .  S
Cd423       O425   2.055       .  S
Cd423       O426   1.991       .  S
Cd424       O428   2.087       .  S
Cd424       O437   2.067       .  S
Cd424       O426   2.007       .  S
O425        C435   1.274       .  A
O426       Cd427   2.008       .  S
Cd427       O429   2.094       .  S
O428        C435   1.278       .  A
C430        O434   1.273       .  A
C430       C1457   1.487       .  S
C431       C2332   1.480       .  S
C433       C1492   1.486       .  S
C435       C1433   1.481       .  S
C436        O437   1.275       .  A
C436       C1684   1.486       .  S
O438        C454   1.271       .  A
O438       Zn444   1.995       .  S
C439        O455   1.272       .  A
C439        O452   1.277       .  A
C439       C1385   1.486       .  S
O440        C453   1.279       .  A
O440       Cd447   2.103       .  S
O441        C459   1.277       .  A
O441       Cd450   2.078       .  S
O442        C456   1.275       .  A
O442       Cd446   2.063       .  S
O443        C454   1.276       .  A
O443       Cd446   2.085       .  S
Zn444       O455   2.005       .  S
Zn444       O457   1.983       .  S
Zn444       O449   1.925       .  S
O445        C456   1.278       .  A
O445       Cd450   2.083       .  S
Cd446       O448   2.065       .  S
Cd446       O449   1.997       .  S
Cd447       O451   2.105       .  S
Cd447       O460   2.074       .  S
Cd447       O449   2.017       .  S
O448        C458   1.275       .  A
O449       Cd450   2.010       .  S
Cd450       O452   2.097       .  S
O451        C458   1.279       .  A
C453        O457   1.271       .  A
C453       C1409   1.479       .  S
C454       C1553   1.478       .  S
C456       C1444   1.484       .  S
C458       C1372   1.491       .  S
C459        O460   1.277       .  A
C459       C2284   1.482       .  S
O461        C477   1.270       .  A
O461       Zn467   1.985       .  S
C462        O478   1.273       .  A
C462        O475   1.278       .  A
C462       C1660   1.487       .  S
O463        C476   1.277       .  A
O463       Cd470   2.097       .  S
O464        C482   1.278       .  A
O464       Cd473   2.085       .  S
O465        C479   1.277       .  A
O465       Cd469   2.073       .  S
O466        C477   1.277       .  A
O466       Cd469   2.096       .  S
Zn467       O478   1.999       .  S
Zn467       O480   1.976       .  S
Zn467       O472   1.916       .  S
O468        C479   1.279       .  A
O468       Cd473   2.088       .  S
Cd469       O471   2.053       .  S
Cd469       O472   2.001       .  S
Cd470       O474   2.092       .  S
Cd470       O483   2.072       .  S
Cd470       O472   2.014       .  S
O471        C481   1.274       .  A
O472       Cd473   2.003       .  S
Cd473       O475   2.098       .  S
O474        C481   1.278       .  A
C476        O480   1.270       .  A
C476       C1300   1.473       .  S
C477       C1337   1.484       .  S
C479       C1265   1.485       .  S
C481       C1313   1.483       .  S
C482        O483   1.277       .  A
C482       C2908   1.486       .  S
O484        C500   1.274       .  A
O484       Zn490   2.016       .  S
C485        O501   1.273       .  A
C485        O498   1.276       .  A
C485       C1529   1.482       .  S
O486        C499   1.279       .  A
O486       Cd493   2.099       .  S
O487        C505   1.276       .  A
O487       Cd496   2.067       .  S
O488        C502   1.275       .  A
O488       Cd492   2.063       .  S
O489        C500   1.275       .  A
O489       Cd492   2.079       .  S
Zn490       O501   1.997       .  S
Zn490       O503   2.000       .  S
Zn490       O495   1.924       .  S
O491        C502   1.276       .  A
O491       Cd496   2.074       .  S
Cd492       O494   2.047       .  S
Cd492       O495   1.994       .  S
Cd493       O497   2.095       .  S
Cd493       O506   2.088       .  S
Cd493       O495   2.016       .  S
O494        C504   1.273       .  A
O495       Cd496   2.004       .  S
Cd496       O498   2.085       .  S
O497        C504   1.278       .  A
C499        O503   1.274       .  A
C499       C1276   1.486       .  S
C500       C1241   1.481       .  S
C502       C1289   1.483       .  S
C504       C1228   1.481       .  S
C505        O506   1.278       .  A
C505       C2801   1.486       .  S
O507        C523   1.271       .  A
O507       Zn513   1.992       .  S
C508        O524   1.275       .  A
C508        O521   1.276       .  A
C508       C1481   1.486       .  S
O509        C522   1.278       .  A
O509       Cd516   2.095       .  S
O510        C528   1.276       .  A
O510       Cd519   2.067       .  S
O511        C525   1.276       .  A
O511       Cd515   2.071       .  S
O512        C523   1.277       .  A
O512       Cd515   2.090       .  S
Zn513       O524   2.018       .  S
Zn513       O526   1.992       .  S
Zn513       O518   1.924       .  S
O514        C525   1.275       .  A
O514       Cd519   2.069       .  S
Cd515       O517   2.055       .  S
Cd515       O518   1.999       .  S
Cd516       O520   2.100       .  S
Cd516       O529   2.077       .  S
Cd516       O518   2.016       .  S
O517        C527   1.274       .  A
O518       Cd519   1.995       .  S
Cd519       O521   2.082       .  S
O520        C527   1.279       .  A
C522        O526   1.272       .  A
C522       C1180   1.475       .  S
C523       C1348   1.484       .  S
C525       C1145   1.481       .  S
C527       C1204   1.484       .  S
C528        O529   1.277       .  A
C528       C2692   1.482       .  S
O530        C546   1.274       .  A
O530       Zn536   2.015       .  S
C531        O547   1.273       .  A
C531        O544   1.278       .  A
C531       C1396   1.488       .  S
O532        C545   1.277       .  A
O532       Cd539   2.086       .  S
O533        C551   1.277       .  A
O533       Cd542   2.075       .  S
O534        C548   1.276       .  A
O534       Cd538   2.063       .  S
O535        C546   1.275       .  A
O535       Cd538   2.074       .  S
Zn536       O547   2.008       .  S
Zn536       O549   1.993       .  S
Zn536       O541   1.928       .  S
O537        C548   1.278       .  A
O537       Cd542   2.083       .  S
Cd538       O540   2.060       .  S
Cd538       O541   1.993       .  S
Cd539       O543   2.088       .  S
Cd539       O552   2.073       .  S
Cd539       O541   2.012       .  S
O540        C550   1.273       .  A
O541       Cd542   2.004       .  S
Cd542       O544   2.095       .  S
O543        C550   1.277       .  A
C545        O549   1.273       .  A
C545       C1156   1.478       .  S
C546       C1252   1.481       .  S
C548       C1169   1.484       .  S
C550       C1132   1.484       .  S
C551        O552   1.276       .  A
C551       C2609   1.484       .  S
O553        C569   1.273       .  A
O553       Zn559   2.006       .  S
C554        O570   1.273       .  A
C554        O567   1.276       .  A
C554       C1073   1.482       .  S
O555        C568   1.279       .  A
O555       Cd562   2.106   1_565  S
O556        C574   1.276       .  A
O556       Cd565   2.071       .  S
O557        C571   1.277       .  A
O557       Cd561   2.077       .  S
O558        C569   1.277       .  A
O558       Cd561   2.090       .  S
Zn559       O570   2.005       .  S
Zn559       O572   1.988   1_545  S
Zn559       O564   1.920       .  S
O560        C571   1.276       .  A
O560       Cd565   2.072       .  S
Cd561       O563   2.055       .  S
Cd561       O564   1.997       .  S
Cd562       O566   2.098       .  S
Cd562       O575   2.082       .  S
Cd562       O564   2.015       .  S
O563        C573   1.274       .  A
O564       Cd565   1.997       .  S
Cd565       O567   2.081       .  S
O566        C573   1.279       .  A
C568        O572   1.272       .  A
C568       C1036   1.481       .  S
C569       C1097   1.485       .  S
C571       C1060   1.484       .  S
C573       C1193   1.487       .  S
C574        O575   1.277       .  A
C574       C2153   1.486       .  S
O576        C592   1.273       .  A
O576       Zn582   2.011       .  S
C577        O593   1.273       .  A
C577        O590   1.277       .  A
C577       C1025   1.476       .  S
O578        C591   1.278       .  A
O578       Cd585   2.091       .  S
O579        C597   1.277       .  A
O579       Cd588   2.078       .  S
O580        C594   1.275       .  A
O580       Cd584   2.066       .  S
O581        C592   1.275       .  A
O581       Cd584   2.077       .  S
Zn582       O593   2.007       .  S
Zn582       O595   2.002       .  S
Zn582       O587   1.932       .  S
O583        C594   1.278       .  A
O583       Cd588   2.086       .  S
Cd584       O586   2.060       .  S
Cd584       O587   1.995       .  S
Cd585       O589   2.090       .  S
Cd585       O598   2.078       .  S
Cd585       O587   2.011       .  S
O586        C596   1.275       .  A
O587       Cd588   2.004       .  S
Cd588       O590   2.095       .  S
O589        C596   1.278       .  A
C591        O595   1.273       .  A
C591       C1121   1.483       .  S
C592       C2092   1.483       .  S
C594        C977   1.484       .  S
C596       C1049   1.484       .  S
C597        O598   1.276       .  A
C597       C1001   1.486       .  S
O599        C615   1.273       .  A
O599       Zn605   2.009       .  S
C600        O616   1.273       .  A
C600        O613   1.277       .  A
C600        C964   1.483       .  S
O601        C614   1.277       .  A
O601       Cd608   2.091       .  S
O602        C620   1.277       .  A
O602       Cd611   2.076       .  S
O603        C617   1.276       .  A
O603       Cd607   2.069       .  S
O604        C615   1.277       .  A
O604       Cd607   2.091       .  S
Zn605       O616   2.003       .  S
Zn605       O618   1.993       .  S
Zn605       O610   1.926       .  S
O606        C617   1.277       .  A
O606       Cd611   2.078       .  S
Cd607       O609   2.058       .  S
Cd607       O610   2.000       .  S
Cd608       O612   2.085       .  S
Cd608       O621   2.083       .  S
Cd608       O610   2.016       .  S
O609        C619   1.274       .  A
O610       Cd611   2.003       .  S
Cd611       O613   2.088       .  S
O612        C619   1.277       .  A
C614        O618   1.272       .  A
C614        C905   1.482       .  S
C615       C1012   1.487       .  S
C617        C940   1.484       .  S
C619       C1324   1.480       .  S
C620        O621   1.277       .  A
C620       C1996   1.488       .  S
O622        C638   1.273       .  A
O622       Zn628   2.005       .  S
C623        O639   1.273       .  A
C623        O636   1.275       .  A
C623        C881   1.483       .  S
O624        C637   1.279       .  A
O624       Cd631   2.105   1_545  S
O625        C643   1.275       .  A
O625       Cd634   2.059       .  S
O626        C640   1.275       .  A
O626       Cd630   2.069       .  S
O627        C638   1.276       .  A
O627       Cd630   2.083       .  S
Zn628       O639   2.005       .  S
Zn628       O641   1.985   1_565  S
Zn628       O633   1.920       .  S
O629        C640   1.276       .  A
O629       Cd634   2.075       .  S
Cd630       O632   2.050       .  S
Cd630       O633   1.994       .  S
Cd631       O635   2.097       .  S
Cd631       O644   2.085       .  S
Cd631       O633   2.020       .  S
O632        C642   1.273       .  A
O633       Cd634   1.998       .  S
Cd634       O636   2.081       .  S
O635        C642   1.279       .  A
C637        O641   1.272       .  A
C637        C929   1.483       .  S
C638       C1108   1.484       .  S
C640        C916   1.481       .  S
C642       C1217   1.485       .  S
C643        O644   1.278       .  A
C643       C1948   1.482       .  S
O645        C661   1.272       .  A
O645       Zn651   2.000       .  S
C646        O662   1.272       .  A
C646        O659   1.276       .  A
C646        C892   1.481       .  S
O647        C660   1.280       .  A
O647       Cd654   2.108   1_565  S
O648        C666   1.277       .  A
O648       Cd657   2.072       .  S
O649        C663   1.274       .  A
O649       Cd653   2.057       .  S
O650        C661   1.275       .  A
O650       Cd653   2.078       .  S
Zn651       O662   1.999       .  S
Zn651       O664   1.973   1_545  S
Zn651       O656   1.921       .  S
O652        C663   1.278       .  A
O652       Cd657   2.086       .  S
Cd653       O655   2.053       .  S
Cd653       O656   1.988       .  S
Cd654       O658   2.114       .  S
Cd654       O667   2.087       .  S
Cd654       O656   2.019       .  S
O655        C665   1.274       .  A
O656       Cd657   2.001       .  S
Cd657       O659   2.086       .  S
O658        C665   1.281       .  A
C660        O664   1.270       .  A
C660        C809   1.480       .  S
C661        C868   1.480       .  S
C663        C844   1.483       .  S
C665       C1625   1.490       .  S
C666        O667   1.279       .  A
C666       C1841   1.486       .  S
O668        C684   1.273       .  A
O668       Zn674   2.018       .  S
C669        O685   1.273       .  A
C669        O682   1.280       .  A
C669        C820   1.483       .  S
O670        C683   1.277       .  A
O670       Cd677   2.091       .  S
O671        C689   1.278       .  A
O671       Cd680   2.093       .  S
O672        C686   1.274       .  A
O672       Cd676   2.054       .  S
O673        C684   1.273       .  A
O673       Cd676   2.070       .  S
Zn674       O685   1.992       .  S
Zn674       O687   1.997       .  S
Zn674       O679   1.929       .  S
O675        C686   1.278       .  A
O675       Cd680   2.093       .  S
Cd676       O678   2.050       .  S
Cd676       O679   1.988       .  S
Cd677       O681   2.088       .  S
Cd677       O690   2.065       .  S
Cd677       O679   2.009       .  S
O678        C688   1.274       .  A
O679       Cd680   2.017       .  S
Cd680       O682   2.102       .  S
O681        C688   1.277       .  A
C683        O687   1.272       .  A
C683       C1505   1.482       .  S
C684       C1804   1.484       .  S
C686        C953   1.483       .  S
C688        C833   1.478       .  S
C689        O690   1.275       .  A
C689        C796   1.486       .  S
O691        C707   1.275       .  A
O691       Zn697   2.023       .  S
C692        O708   1.272       .  A
C692        O705   1.280       .  A
C692        C761   1.485       .  S
O693        C706   1.277       .  A
O693       Cd700   2.096       .  S
O694        C712   1.279       .  A
O694       Cd703   2.095       .  S
O695        C709   1.274       .  A
O695       Cd699   2.055       .  S
O696        C707   1.273       .  A
O696       Cd699   2.060       .  S
Zn697       O708   1.988       .  S
Zn697       O710   1.998       .  S
Zn697       O702   1.929       .  S
O698        C709   1.279       .  A
O698       Cd703   2.099       .  S
Cd699       O701   2.050       .  S
Cd699       O702   1.984       .  S
Cd700       O704   2.089       .  S
Cd700       O713   2.064       .  S
Cd700       O702   2.008       .  S
O701        C711   1.273       .  A
O702       Cd703   2.015       .  S
Cd703       O705   2.104       .  S
O704        C711   1.278       .  A
C706        O710   1.272       .  A
C706       C1468   1.482       .  S
C707       C1732   1.481       .  S
C709        C988   1.485       .  S
C711        C748   1.479       .  S
C712        O713   1.276       .  A
C712        C785   1.486       .  S
O714        C730   1.272       .  A
O714       Zn720   2.006       .  S
C715        O731   1.272       .  A
C715        O728   1.276       .  A
C715       C1084   1.483       .  S
O716        C729   1.281       .  A
O716       Cd723   2.113   1_545  S
O717        C735   1.276       .  A
O717       Cd726   2.067       .  S
O718        C732   1.275       .  A
O718       Cd722   2.064       .  S
O719        C730   1.275       .  A
O719       Cd722   2.078       .  S
Zn720       O731   2.000       .  S
Zn720       O733   1.985   1_565  S
Zn720       O725   1.925       .  S
O721        C732   1.275       .  A
O721       Cd726   2.072       .  S
Cd722       O724   2.051       .  S
Cd722       O725   1.992       .  S
Cd723       O727   2.114       .  S
Cd723       O736   2.092       .  S
Cd723       O725   2.023       .  S
O724        C734   1.274       .  A
O725       Cd726   2.001       .  S
Cd726       O728   2.084       .  S
O727        C734   1.281       .  A
C729        O733   1.272       .  A
C729        C772   1.487       .  S
C730        C857   1.480       .  S
C732        C737   1.482       .  S
C734       C1361   1.489       .  S
C735        O736   1.279       .  A
C735       C1708   1.486       .  S
C737        C738   1.406       .  A
C737        C742   1.406       .  A
C738        C739   1.398       .  A
C738        H751   1.083       .  S
C739        C740   1.404       .  A
C739        H752   1.083       .  S
C740        C741   1.407       .  A
C740        C743   1.486       .  S
C741        C742   1.397       .  A
C741        H753   1.081       .  S
C742        H754   1.083       .  S
C743        C744   1.349       .  D
C743        H755   1.084       .  S
C744        C745   1.487       .  S
C744        H756   1.085       .  S
C745        C746   1.405       .  A
C745        C750   1.407       .  A
C746        C747   1.400       .  A
C746        H757   1.083       .  S
C747        C748   1.404       .  A
C747        H758   1.083       .  S
C748        C749   1.406       .  A
C749        C750   1.396       .  A
C749        H759   1.083       .  S
C750        H760   1.081       .  S
C761        C762   1.404       .  A
C761        C766   1.408       .  A
C762        C763   1.403       .  A
C762        H775   1.083       .  S
C763        C764   1.407       .  A
C763        H776   1.083       .  S
C764        C765   1.405       .  A
C764        C767   1.489       .  S
C765        C766   1.396       .  A
C765        H777   1.081       .  S
C766        H778   1.083       .  S
C767        C768   1.353       .  D
C767        H779   1.085       .  S
C768        C769   1.491       .  S
C768        H780   1.085       .  S
C769        C770   1.408       .  A
C769        C774   1.404       .  A
C770        C771   1.405       .  A
C770        H781   1.083       .  S
C771        C772   1.405       .  A
C771        H782   1.083       .  S
C772        C773   1.408       .  A
C773        C774   1.394       .  A
C773        H783   1.083       .  S
C774        H784   1.081       .  S
C785        C786   1.406       .  A
C785        C790   1.407       .  A
C786        C787   1.397       .  A
C786        H799   1.083       .  S
C787        C788   1.403       .  A
C787        H800   1.083       .  S
C788        C789   1.409       .  A
C788        C791   1.489       .  S
C789        C790   1.403       .  A
C789        H801   1.082       .  S
C790        H802   1.083       .  S
C791        C792   1.349       .  D
C791        H803   1.084       .  S
C792        C793   1.492       .  S
C792        H804   1.085       .  S
C793        C794   1.405       .  A
C793        C798   1.408       .  A
C794        C795   1.402       .  A
C794        H805   1.083       .  S
C795        C796   1.406       .  A
C795        H806   1.083       .  S
C796        C797   1.407       .  A
C797        C798   1.398       .  A
C797        H807   1.083       .  S
C798        H808   1.081       .  S
C809        C810   1.407       .  A
C809        C814   1.404       .  A
C810        C811   1.393       .  A
C810        H823   1.083       .  S
C811        C812   1.399       .  A
C811        H824   1.084       .  S
C812        C813   1.411       .  A
C812        C815   1.485       .  S
C813        C814   1.404       .  A
C813        H825   1.082       .  S
C814        H826   1.083       .  S
C815        C816   1.345       .  D
C815        H827   1.084       .  S
C816        C817   1.489       .  S
C816        H828   1.086       .  S
C817        C818   1.401       .  A
C817        C822   1.412       .  A
C818        C819   1.395       .  A
C818        H829   1.084       .  S
C819        C820   1.407       .  A
C819        H830   1.083       .  S
C820        C821   1.404       .  A
C821        C822   1.403       .  A
C821        H831   1.083       .  S
C822        H832   1.081       .  S
C833        C834   1.404       .  A
C833        C838   1.405       .  A
C834        C835   1.393       .  A
C834        H847   1.084       .  S
C835        C836   1.401       .  A
C835        H848   1.083       .  S
C836        C837   1.409       .  A
C836        C839   1.484       .  S
C837        C838   1.402       .  A
C837        H849   1.082       .  S
C838        H850   1.083       .  S
C839        C840   1.346       .  D
C839        H851   1.085       .  S
C840        C841   1.485       .  S
C840        H852   1.084       .  S
C841        C842   1.401       .  A
C841        C846   1.408       .  A
C842        C843   1.397       .  A
C842        H853   1.083       .  S
C843        C844   1.408       .  A
C843        H854   1.083       .  S
C844        C845   1.405       .  A
C845        C846   1.399       .  A
C845        H855   1.083       .  S
C846        H856   1.082       .  S
C857        C858   1.405       .  A
C857        C862   1.406       .  A
C858        C859   1.399       .  A
C858        H871   1.083       .  S
C859        C860   1.404       .  A
C859        H872   1.083       .  S
C860        C861   1.406       .  A
C860        C863   1.484       .  S
C861        C862   1.396       .  A
C861        H873   1.082   1_565  S
C862        H874   1.083       .  S
C863        C864   1.346       .  D
C863        H875   1.086       .  S
C864        C865   1.482   1_565  S
C864        H876   1.086       .  S
C865        C866   1.401   1_545  A
C865        C870   1.407       .  A
C866        C867   1.396   1_565  A
C866        H877   1.084       .  S
C867        C868   1.407       .  A
C867        H878   1.083   1_545  S
C868        C869   1.405       .  A
C869        C870   1.399       .  A
C869        H879   1.083       .  S
C870        H880   1.082       .  S
C881        C882   1.407       .  A
C881        C886   1.406       .  A
C882        C883   1.401       .  A
C882        H895   1.083       .  S
C883        C884   1.404       .  A
C883        H896   1.083       .  S
C884        C885   1.406       .  A
C884        C887   1.486       .  S
C885        C886   1.395       .  A
C885        H897   1.082   1_565  S
C886        H898   1.083   1_565  S
C887        C888   1.348   1_665  D
C887        H899   1.086   1_655  S
C888        C889   1.484       .  S
C888        H900   1.086   1_455  S
C889        C890   1.404       .  A
C889        C894   1.406   1_545  A
C890        C891   1.399       .  A
C890        H901   1.083       .  S
C891        C892   1.404       .  A
C891        H902   1.083       .  S
C892        C893   1.407   1_545  A
C893        C894   1.398       .  A
C893        H903   1.083       .  S
C894        H904   1.082       .  S
C905        C906   1.406       .  A
C905        C910   1.406       .  A
C906        C907   1.403       .  A
C906        H919   1.083       .  S
C907        C908   1.406       .  A
C907        H920   1.083       .  S
C908        C909   1.404       .  A
C908        C911   1.485       .  S
C909        C910   1.393       .  A
C909        H921   1.082       .  S
C910        H922   1.083       .  S
C911        C912   1.348       .  D
C911        H923   1.086       .  S
C912        C913   1.483       .  S
C912        H924   1.086       .  S
C913        C914   1.403       .  A
C913        C918   1.406       .  A
C914        C915   1.398       .  A
C914        H925   1.083       .  S
C915        C916   1.405       .  A
C915        H926   1.083       .  S
C916        C917   1.407       .  A
C917        C918   1.399       .  A
C917        H927   1.083       .  S
C918        H928   1.082       .  S
C929        C930   1.405       .  A
C929        C934   1.407       .  A
C930        C931   1.405       .  A
C930        H943   1.083       .  S
C931        C932   1.407       .  A
C931        H944   1.083       .  S
C932        C933   1.404       .  A
C932        C935   1.487       .  S
C933        C934   1.393       .  A
C933        H945   1.082       .  S
C934        H946   1.083       .  S
C935        C936   1.349       .  D
C935        H947   1.086       .  S
C936        C937   1.484       .  S
C936        H948   1.086       .  S
C937        C938   1.403       .  A
C937        C942   1.406       .  A
C938        C939   1.399       .  A
C938        H949   1.083       .  S
C939        C940   1.406       .  A
C939        H950   1.083       .  S
C940        C941   1.408       .  A
C941        C942   1.399       .  A
C941        H951   1.083       .  S
C942        H952   1.082       .  S
C953        C954   1.406       .  A
C953        C958   1.407       .  A
C954        C955   1.394       .  A
C954        H967   1.083       .  S
C955        C956   1.401       .  A
C955        H968   1.084       .  S
C956        C957   1.409       .  A
C956        C959   1.486       .  S
C957        C958   1.403       .  A
C957        H969   1.081       .  S
C958        H970   1.083       .  S
C959        C960   1.346   1_455  D
C959        H971   1.085       .  S
C960        C961   1.489       .  S
C960        H972   1.085   1_655  S
C961        C962   1.402       .  A
C961        C966   1.410       .  A
C962        C963   1.398       .  A
C962        H973   1.083       .  S
C963        C964   1.407       .  A
C963        H974   1.083       .  S
C964        C965   1.404       .  A
C965        C966   1.400       .  A
C965        H975   1.083       .  S
C966        H976   1.081       .  S
C977        C978   1.406       .  A
C977        C982   1.407       .  A
C978        C979   1.400       .  A
C978        H991   1.083       .  S
C979        C980   1.404       .  A
C979        H992   1.083       .  S
C980        C981   1.406       .  A
C980        C983   1.486       .  S
C981        C982   1.398       .  A
C981        H993   1.082       .  S
C982        H994   1.083       .  S
C983        C984   1.349   1_655  D
C983        H995   1.086   1_655  S
C984        C985   1.488       .  S
C984        H996   1.086   1_455  S
C985        C986   1.405       .  A
C985        C990   1.406       .  A
C986        C987   1.402       .  A
C986        H997   1.083       .  S
C987        C988   1.405       .  A
C987        H998   1.083       .  S
C988        C989   1.407       .  A
C989        C990   1.397       .  A
C989        H999   1.083       .  S
C990       H1000   1.082       .  S
C1001      C1002   1.405       .  A
C1001      C1006   1.408       .  A
C1002      C1003   1.398       .  A
C1002      H1015   1.083       .  S
C1003      C1004   1.405       .  A
C1003      H1016   1.083       .  S
C1004      C1005   1.408       .  A
C1004      C1007   1.491       .  S
C1005      C1006   1.402       .  A
C1005      H1017   1.082       .  S
C1006      H1018   1.082       .  S
C1007      C1008   1.351       .  D
C1007      H1019   1.083       .  S
C1008      C1009   1.493       .  S
C1008      H1020   1.084       .  S
C1009      C1010   1.406       .  A
C1009      C1014   1.408       .  A
C1010      C1011   1.402       .  A
C1010      H1021   1.083       .  S
C1011      C1012   1.406       .  A
C1011      H1022   1.083       .  S
C1012      C1013   1.407       .  A
C1013      C1014   1.397       .  A
C1013      H1023   1.083       .  S
C1014      H1024   1.080       .  S
C1025      C1026   1.404       .  A
C1025      C1030   1.405       .  A
C1026      C1027   1.397       .  A
C1026      H1039   1.083       .  S
C1027      C1028   1.402       .  A
C1027      H1040   1.083       .  S
C1028      C1029   1.407       .  A
C1028      C1031   1.482       .  S
C1029      C1030   1.403       .  A
C1029      H1041   1.083       .  S
C1030      H1042   1.083       .  S
C1031      C1032   1.347       .  D
C1031      H1043   1.086       .  S
C1032      C1033   1.487       .  S
C1032      H1044   1.087       .  S
C1033      C1034   1.407       .  A
C1033      C1038   1.404       .  A
C1034      C1035   1.405       .  A
C1034      H1045   1.083       .  S
C1035      C1036   1.405       .  A
C1035      H1046   1.083       .  S
C1036      C1037   1.406       .  A
C1037      C1038   1.394       .  A
C1037      H1047   1.083       .  S
C1038      H1048   1.082       .  S
C1049      C1050   1.405       .  A
C1049      C1054   1.406       .  A
C1050      C1051   1.401       .  A
C1050      H1063   1.083       .  S
C1051      C1052   1.405       .  A
C1051      H1064   1.083       .  S
C1052      C1053   1.408       .  A
C1052      C1055   1.491       .  S
C1053      C1054   1.397       .  A
C1053      H1065   1.081       .  S
C1054      H1066   1.083       .  S
C1055      C1056   1.350       .  D
C1055      H1067   1.085       .  S
C1056      C1057   1.487       .  S
C1056      H1068   1.084       .  S
C1057      C1058   1.403       .  A
C1057      C1062   1.407       .  A
C1058      C1059   1.398       .  A
C1058      H1069   1.084       .  S
C1059      C1060   1.406       .  A
C1059      H1070   1.083       .  S
C1060      C1061   1.407       .  A
C1061      C1062   1.400       .  A
C1061      H1071   1.083       .  S
C1062      H1072   1.082       .  S
C1073      C1074   1.405       .  A
C1073      C1078   1.407   1_545  A
C1074      C1075   1.400       .  A
C1074      H1087   1.083       .  S
C1075      C1076   1.404       .  A
C1075      H1088   1.083       .  S
C1076      C1077   1.405   1_545  A
C1076      C1079   1.483       .  S
C1077      C1078   1.396       .  A
C1077      H1089   1.082       .  S
C1078      H1090   1.083       .  S
C1079      C1080   1.347   1_645  D
C1079      H1091   1.086   1_655  S
C1080      C1081   1.483       .  S
C1080      H1092   1.086   1_455  S
C1081      C1082   1.404       .  A
C1081      C1086   1.404       .  A
C1082      C1083   1.400       .  A
C1082      H1093   1.083       .  S
C1083      C1084   1.406       .  A
C1083      H1094   1.083       .  S
C1084      C1085   1.407       .  A
C1085      C1086   1.396       .  A
C1085      H1095   1.083   1_565  S
C1086      H1096   1.083   1_565  S
C1097      C1098   1.408   1_545  A
C1097      C1102   1.406       .  A
C1098      C1099   1.396       .  A
C1098      H1111   1.083       .  S
C1099      C1100   1.401       .  A
C1099      H1112   1.084       .  S
C1100      C1101   1.409   1_565  A
C1100      C1103   1.487       .  S
C1101      C1102   1.402       .  A
C1101      H1113   1.082       .  S
C1102      H1114   1.083       .  S
C1103      C1104   1.345   1_565  D
C1103      H1115   1.086       .  S
C1104      C1105   1.487   1_545  S
C1104      H1116   1.086       .  S
C1105      C1106   1.401   1_565  A
C1105      C1110   1.409       .  A
C1106      C1107   1.395       .  A
C1106      H1117   1.083       .  S
C1107      C1108   1.407   1_545  A
C1107      H1118   1.083       .  S
C1108      C1109   1.406       .  A
C1109      C1110   1.402       .  A
C1109      H1119   1.083       .  S
C1110      H1120   1.082       .  S
C1121      C1122   1.407       .  A
C1121      C1126   1.405       .  A
C1122      C1123   1.397       .  A
C1122      H1135   1.083       .  S
C1123      C1124   1.402       .  A
C1123      H1136   1.084       .  S
C1124      C1125   1.409       .  A
C1124      C1127   1.488       .  S
C1125      C1126   1.401       .  A
C1125      H1137   1.081       .  S
C1126      H1138   1.083       .  S
C1127      C1128   1.348       .  D
C1127      H1139   1.085       .  S
C1128      C1129   1.489       .  S
C1128      H1140   1.085       .  S
C1129      C1130   1.402       .  A
C1129      C1134   1.409       .  A
C1130      C1131   1.397       .  A
C1130      H1141   1.084       .  S
C1131      C1132   1.406       .  A
C1131      H1142   1.083       .  S
C1132      C1133   1.406       .  A
C1133      C1134   1.401       .  A
C1133      H1143   1.083       .  S
C1134      H1144   1.081       .  S
C1145      C1146   1.406       .  A
C1145      C1150   1.406       .  A
C1146      C1147   1.398       .  A
C1146      H1159   1.083       .  S
C1147      C1148   1.403       .  A
C1147      H1160   1.084       .  S
C1148      C1149   1.406       .  A
C1148      C1151   1.482   1_545  S
C1149      C1150   1.397       .  A
C1149      H1161   1.082       .  S
C1150      H1162   1.083       .  S
C1151      C1152   1.348       .  D
C1151      H1163   1.086       .  S
C1152      C1153   1.483       .  S
C1152      H1164   1.086       .  S
C1153      C1154   1.406       .  A
C1153      C1158   1.404       .  A
C1154      C1155   1.402       .  A
C1154      H1165   1.083       .  S
C1155      C1156   1.405       .  A
C1155      H1166   1.083       .  S
C1156      C1157   1.405       .  A
C1157      C1158   1.392       .  A
C1157      H1167   1.083       .  S
C1158      H1168   1.082       .  S
C1169      C1170   1.406       .  A
C1169      C1174   1.407       .  A
C1170      C1171   1.400       .  A
C1170      H1183   1.083       .  S
C1171      C1172   1.404       .  A
C1171      H1184   1.083       .  S
C1172      C1173   1.407       .  A
C1172      C1175   1.488       .  S
C1173      C1174   1.397       .  A
C1173      H1185   1.081       .  S
C1174      H1186   1.083       .  S
C1175      C1176   1.346       .  D
C1175      H1187   1.086       .  S
C1176      C1177   1.483       .  S
C1176      H1188   1.085       .  S
C1177      C1178   1.401       .  A
C1177      C1182   1.410       .  A
C1178      C1179   1.393       .  A
C1178      H1189   1.084       .  S
C1179      C1180   1.403       .  A
C1179      H1190   1.084       .  S
C1180      C1181   1.404       .  A
C1181      C1182   1.404       .  A
C1181      H1191   1.083       .  S
C1182      H1192   1.082       .  S
C1193      C1194   1.409       .  A
C1193      C1198   1.406       .  A
C1194      C1195   1.396       .  A
C1194      H1207   1.083       .  S
C1195      C1196   1.400       .  A
C1195      H1208   1.084       .  S
C1196      C1197   1.409       .  A
C1196      C1199   1.486       .  S
C1197      C1198   1.404       .  A
C1197      H1209   1.082       .  S
C1198      H1210   1.083       .  S
C1199      C1200   1.344       .  D
C1199      H1211   1.086       .  S
C1200      C1201   1.486       .  S
C1200      H1212   1.086       .  S
C1201      C1202   1.400       .  A
C1201      C1206   1.410       .  A
C1202      C1203   1.395       .  A
C1202      H1213   1.084       .  S
C1203      C1204   1.407       .  A
C1203      H1214   1.083       .  S
C1204      C1205   1.406       .  A
C1205      C1206   1.405       .  A
C1205      H1215   1.083       .  S
C1206      H1216   1.082       .  S
C1217      C1218   1.408       .  A
C1217      C1222   1.406       .  A
C1218      C1219   1.394       .  A
C1218      H1231   1.083       .  S
C1219      C1220   1.399       .  A
C1219      H1232   1.084       .  S
C1220      C1221   1.408       .  A
C1220      C1223   1.482       .  S
C1221      C1222   1.403       .  A
C1221      H1233   1.082       .  S
C1222      H1234   1.083       .  S
C1223      C1224   1.342       .  D
C1223      H1235   1.087       .  S
C1224      C1225   1.482       .  S
C1224      H1236   1.087       .  S
C1225      C1226   1.399       .  A
C1225      C1230   1.409       .  A
C1226      C1227   1.394       .  A
C1226      H1237   1.084       .  S
C1227      C1228   1.408       .  A
C1227      H1238   1.083       .  S
C1228      C1229   1.405       .  A
C1229      C1230   1.403       .  A
C1229      H1239   1.083       .  S
C1230      H1240   1.083       .  S
C1241      C1242   1.406       .  A
C1241      C1246   1.406       .  A
C1242      C1243   1.397       .  A
C1242      H1255   1.083       .  S
C1243      C1244   1.401       .  A
C1243      H1256   1.084       .  S
C1244      C1245   1.407       .  A
C1244      C1247   1.483       .  S
C1245      C1246   1.401       .  A
C1245      H1257   1.082       .  S
C1246      H1258   1.083       .  S
C1247      C1248   1.346       .  D
C1247      H1259   1.086       .  S
C1248      C1249   1.485       .  S
C1248      H1260   1.086       .  S
C1249      C1250   1.403       .  A
C1249      C1254   1.407       .  A
C1250      C1251   1.398       .  A
C1250      H1261   1.083       .  S
C1251      C1252   1.405       .  A
C1251      H1262   1.083       .  S
C1252      C1253   1.406       .  A
C1253      C1254   1.398       .  A
C1253      H1263   1.083       .  S
C1254      H1264   1.082       .  S
C1265      C1266   1.405       .  A
C1265      C1270   1.408       .  A
C1266      C1267   1.400       .  A
C1266      H1279   1.083       .  S
C1267      C1268   1.404       .  A
C1267      H1280   1.083       .  S
C1268      C1269   1.406       .  A
C1268      C1271   1.487       .  S
C1269      C1270   1.400       .  A
C1269      H1281   1.082       .  S
C1270      H1282   1.083       .  S
C1271      C1272   1.350       .  D
C1271      H1283   1.086       .  S
C1272      C1273   1.488       .  S
C1272      H1284   1.086       .  S
C1273      C1274   1.406       .  A
C1273      C1278   1.404       .  A
C1274      C1275   1.405       .  A
C1274      H1285   1.083       .  S
C1275      C1276   1.406       .  A
C1275      H1286   1.083       .  S
C1276      C1277   1.407       .  A
C1277      C1278   1.395       .  A
C1277      H1287   1.083       .  S
C1278      H1288   1.082       .  S
C1289      C1290   1.406       .  A
C1289      C1294   1.406       .  A
C1290      C1291   1.399       .  A
C1290      H1303   1.083       .  S
C1291      C1292   1.403   1_565  A
C1291      H1304   1.083   1_565  S
C1292      C1293   1.408   1_545  A
C1292      C1295   1.488       .  S
C1293      C1294   1.396       .  A
C1293      H1305   1.081   1_565  S
C1294      H1306   1.083       .  S
C1295      C1296   1.345       .  D
C1295      H1307   1.086       .  S
C1296      C1297   1.480       .  S
C1296      H1308   1.085       .  S
C1297      C1298   1.399       .  A
C1297      C1302   1.410       .  A
C1298      C1299   1.391       .  A
C1298      H1309   1.084       .  S
C1299      C1300   1.404       .  A
C1299      H1310   1.084       .  S
C1300      C1301   1.404       .  A
C1301      C1302   1.405       .  A
C1301      H1311   1.083       .  S
C1302      H1312   1.082       .  S
C1313      C1314   1.408       .  A
C1313      C1318   1.405       .  A
C1314      C1315   1.395       .  A
C1314      H1327   1.083       .  S
C1315      C1316   1.400       .  A
C1315      H1328   1.084       .  S
C1316      C1317   1.408       .  A
C1316      C1319   1.483       .  S
C1317      C1318   1.401       .  A
C1317      H1329   1.082       .  S
C1318      H1330   1.083       .  S
C1319      C1320   1.343       .  D
C1319      H1331   1.087       .  S
C1320      C1321   1.482       .  S
C1320      H1332   1.086       .  S
C1321      C1322   1.400       .  A
C1321      C1326   1.408       .  A
C1322      C1323   1.395       .  A
C1322      H1333   1.084       .  S
C1323      C1324   1.406       .  A
C1323      H1334   1.083       .  S
C1324      C1325   1.405       .  A
C1325      C1326   1.401       .  A
C1325      H1335   1.083       .  S
C1326      H1336   1.082       .  S
C1337      C1338   1.408       .  A
C1337      C1342   1.405       .  A
C1338      C1339   1.394       .  A
C1338      H1351   1.083       .  S
C1339      C1340   1.399       .  A
C1339      H1352   1.084       .  S
C1340      C1341   1.410       .  A
C1340      C1343   1.485       .  S
C1341      C1342   1.403       .  A
C1341      H1353   1.082       .  S
C1342      H1354   1.083       .  S
C1343      C1344   1.343       .  D
C1343      H1355   1.086       .  S
C1344      C1345   1.484       .  S
C1344      H1356   1.086       .  S
C1345      C1346   1.399       .  A
C1345      C1350   1.409       .  A
C1346      C1347   1.394       .  A
C1346      H1357   1.084       .  S
C1347      C1348   1.408       .  A
C1347      H1358   1.083       .  S
C1348      C1349   1.406       .  A
C1349      C1350   1.403       .  A
C1349      H1359   1.083       .  S
C1350      H1360   1.082       .  S
C1361      C1362   1.409       .  A
C1361      C1366   1.406       .  A
C1362      C1363   1.396       .  A
C1362      H1375   1.083       .  S
C1363      C1364   1.400       .  A
C1363      H1376   1.084       .  S
C1364      C1365   1.411       .  A
C1364      C1367   1.490       .  S
C1365      C1366   1.407       .  A
C1365      H1377   1.082       .  S
C1366      H1378   1.083       .  S
C1367      C1368   1.346       .  D
C1367      H1379   1.086       .  S
C1368      C1369   1.492       .  S
C1368      H1380   1.086       .  S
C1369      C1370   1.401       .  A
C1369      C1374   1.410       .  A
C1370      C1371   1.397       .  A
C1370      H1381   1.084       .  S
C1371      C1372   1.408       .  A
C1371      H1382   1.083       .  S
C1372      C1373   1.408       .  A
C1373      C1374   1.406       .  A
C1373      H1383   1.083       .  S
C1374      H1384   1.082       .  S
C1385      C1386   1.407       .  A
C1385      C1390   1.406       .  A
C1386      C1387   1.397       .  A
C1386      H1399   1.083       .  S
C1387      C1388   1.401       .  A
C1387      H1400   1.084       .  S
C1388      C1389   1.408       .  A
C1388      C1391   1.487       .  S
C1389      C1390   1.403       .  A
C1389      H1401   1.082       .  S
C1390      H1402   1.083       .  S
C1391      C1392   1.346       .  D
C1391      H1403   1.086       .  S
C1392      C1393   1.488       .  S
C1392      H1404   1.087       .  S
C1393      C1394   1.402       .  A
C1393      C1398   1.408       .  A
C1394      C1395   1.398       .  A
C1394      H1405   1.084       .  S
C1395      C1396   1.408       .  A
C1395      H1406   1.083       .  S
C1396      C1397   1.407       .  A
C1397      C1398   1.403       .  A
C1397      H1407   1.083       .  S
C1398      H1408   1.082       .  S
C1409      C1410   1.406       .  A
C1409      C1414   1.404       .  A
C1410      C1411   1.394       .  A
C1410      H1423   1.083       .  S
C1411      C1412   1.400       .  A
C1411      H1424   1.084       .  S
C1412      C1413   1.410       .  A
C1412      C1415   1.485       .  S
C1413      C1414   1.403       .  A
C1413      H1425   1.082       .  S
C1414      H1426   1.083       .  S
C1415      C1416   1.345       .  D
C1415      H1427   1.085       .  S
C1416      C1417   1.486       .  S
C1416      H1428   1.086       .  S
C1417      C1418   1.400       .  A
C1417      C1422   1.410       .  A
C1418      C1419   1.395       .  A
C1418      H1429   1.084       .  S
C1419      C1420   1.408       .  A
C1419      H1430   1.083       .  S
C1420      C1421   1.405       .  A
C1421      C1422   1.402       .  A
C1421      H1431   1.083       .  S
C1422      H1432   1.081       .  S
C1433      C1434   1.406       .  A
C1433      C1438   1.404       .  A
C1434      C1435   1.396       .  A
C1434      H1447   1.083       .  S
C1435      C1436   1.407       .  A
C1435      H1448   1.080       .  S
C1436      C1437   1.406       .  A
C1436      C1439   1.489       .  S
C1437      C1438   1.400       .  A
C1437      H1449   1.083       .  S
C1438      H1450   1.083       .  S
C1439      C1440   1.350       .  D
C1439      H1451   1.085       .  S
C1440      C1441   1.486   1_545  S
C1440      H1452   1.083       .  S
C1441      C1442   1.404       .  A
C1441      C1446   1.406       .  A
C1442      C1443   1.400       .  A
C1442      H1453   1.083       .  S
C1443      C1444   1.406       .  A
C1443      H1454   1.083       .  S
C1444      C1445   1.407       .  A
C1445      C1446   1.397       .  A
C1445      H1455   1.083       .  S
C1446      H1456   1.081       .  S
C1457      C1458   1.408       .  A
C1457      C1462   1.407       .  A
C1458      C1459   1.396       .  A
C1458      H1471   1.083       .  S
C1459      C1460   1.401       .  A
C1459      H1472   1.084       .  S
C1460      C1461   1.409       .  A
C1460      C1463   1.487       .  S
C1461      C1462   1.403       .  A
C1461      H1473   1.082       .  S
C1462      H1474   1.083       .  S
C1463      C1464   1.345       .  D
C1463      H1475   1.087       .  S
C1464      C1465   1.485       .  S
C1464      H1476   1.086       .  S
C1465      C1466   1.400       .  A
C1465      C1470   1.409       .  A
C1466      C1467   1.395       .  A
C1466      H1477   1.084       .  S
C1467      C1468   1.407       .  A
C1467      H1478   1.083       .  S
C1468      C1469   1.405       .  A
C1469      C1470   1.404       .  A
C1469      H1479   1.083       .  S
C1470      H1480   1.082       .  S
C1481      C1482   1.405       .  A
C1481      C1486   1.406       .  A
C1482      C1483   1.400       .  A
C1482      H1495   1.083       .  S
C1483      C1484   1.406       .  A
C1483      H1496   1.083       .  S
C1484      C1485   1.410       .  A
C1484      C1487   1.496       .  S
C1485      C1486   1.399       .  A
C1485      H1497   1.079       .  S
C1486      H1498   1.083       .  S
C1487      C1488   1.352       .  D
C1487      H1499   1.084       .  S
C1488      C1489   1.492       .  S
C1488      H1500   1.082       .  S
C1489      C1490   1.405       .  A
C1489      C1494   1.408       .  A
C1490      C1491   1.400       .  A
C1490      H1501   1.083       .  S
C1491      C1492   1.405       .  A
C1491      H1502   1.083       .  S
C1492      C1493   1.407       .  A
C1493      C1494   1.400       .  A
C1493      H1503   1.083       .  S
C1494      H1504   1.081       .  S
C1505      C1506   1.406       .  A
C1505      C1510   1.405       .  A
C1506      C1507   1.395       .  A
C1506      H1519   1.083       .  S
C1507      C1508   1.401       .  A
C1507      H1520   1.084       .  S
C1508      C1509   1.410       .  A
C1508      C1511   1.487       .  S
C1509      C1510   1.402       .  A
C1509      H1521   1.081       .  S
C1510      H1522   1.083       .  S
C1511      C1512   1.346       .  D
C1511      H1523   1.085       .  S
C1512      C1513   1.487       .  S
C1512      H1524   1.085       .  S
C1513      C1514   1.401       .  A
C1513      C1518   1.410       .  A
C1514      C1515   1.395       .  A
C1514      H1525   1.083       .  S
C1515      C1516   1.407       .  A
C1515      H1526   1.083       .  S
C1516      C1517   1.405       .  A
C1517      C1518   1.402       .  A
C1517      H1527   1.083       .  S
C1518      H1528   1.081       .  S
C1529      C1530   1.406       .  A
C1529      C1534   1.406       .  A
C1530      C1531   1.402       .  A
C1530      H1543   1.083       .  S
C1531      C1532   1.405       .  A
C1531      H1544   1.083       .  S
C1532      C1533   1.404       .  A
C1532      C1535   1.484       .  S
C1533      C1534   1.393       .  A
C1533      H1545   1.082       .  S
C1534      H1546   1.083       .  S
C1535      C1536   1.348       .  D
C1535      H1547   1.086       .  S
C1536      C1537   1.483       .  S
C1536      H1548   1.086       .  S
C1537      C1538   1.404       .  A
C1537      C1542   1.405       .  A
C1538      C1539   1.399       .  A
C1538      H1549   1.083       .  S
C1539      C1540   1.405       .  A
C1539      H1550   1.083       .  S
C1540      C1541   1.407       .  A
C1541      C1542   1.396       .  A
C1541      H1551   1.083       .  S
C1542      H1552   1.082       .  S
C1553      C1554   1.406       .  A
C1553      C1558   1.405       .  A
C1554      C1555   1.395       .  A
C1554      H1567   1.083       .  S
C1555      C1556   1.401       .  A
C1555      H1568   1.083       .  S
C1556      C1557   1.407       .  A
C1556      C1559   1.481       .  S
C1557      C1558   1.401       .  A
C1557      H1569   1.082       .  S
C1558      H1570   1.083       .  S
C1559      C1560   1.346       .  D
C1559      H1571   1.086       .  S
C1560      C1561   1.485       .  S
C1560      H1572   1.086       .  S
C1561      C1562   1.403       .  A
C1561      C1566   1.406       .  A
C1562      C1563   1.400       .  A
C1562      H1573   1.083       .  S
C1563      C1564   1.406       .  A
C1563      H1574   1.083       .  S
C1564      C1565   1.406       .  A
C1565      C1566   1.397       .  A
C1565      H1575   1.083       .  S
C1566      H1576   1.082       .  S
C1577      C1578   1.405       .  A
C1577      C1582   1.406       .  A
C1578      C1579   1.395       .  A
C1578      H1591   1.083       .  S
C1579      C1580   1.401   1_545  A
C1579      H1592   1.084   1_545  S
C1580      C1581   1.406   1_565  A
C1580      C1583   1.480       .  S
C1581      C1582   1.400       .  A
C1581      H1593   1.082   1_545  S
C1582      H1594   1.083       .  S
C1583      C1584   1.347       .  D
C1583      H1595   1.086       .  S
C1584      C1585   1.484       .  S
C1584      H1596   1.086       .  S
C1585      C1586   1.405       .  A
C1585      C1590   1.404       .  A
C1586      C1587   1.403       .  A
C1586      H1597   1.083       .  S
C1587      C1588   1.406       .  A
C1587      H1598   1.083       .  S
C1588      C1589   1.406       .  A
C1589      C1590   1.392       .  A
C1589      H1599   1.083       .  S
C1590      H1600   1.082       .  S
C1601      C1602   1.407       .  A
C1601      C1606   1.406       .  A
C1602      C1603   1.399       .  A
C1602      H1615   1.083       .  S
C1603      C1604   1.403       .  A
C1603      H1616   1.083       .  S
C1604      C1605   1.407       .  A
C1604      C1607   1.486       .  S
C1605      C1606   1.397       .  A
C1605      H1617   1.082       .  S
C1606      H1618   1.083       .  S
C1607      C1608   1.345       .  D
C1607      H1619   1.086       .  S
C1608      C1609   1.481       .  S
C1608      H1620   1.086       .  S
C1609      C1610   1.399       .  A
C1609      C1614   1.409       .  A
C1610      C1611   1.392       .  A
C1610      H1621   1.084       .  S
C1611      C1612   1.406       .  A
C1611      H1622   1.084       .  S
C1612      C1613   1.405       .  A
C1613      C1614   1.404       .  A
C1613      H1623   1.083       .  S
C1614      H1624   1.082       .  S
C1625      C1626   1.409       .  A
C1625      C1630   1.407       .  A
C1626      C1627   1.395       .  A
C1626      H1639   1.083       .  S
C1627      C1628   1.399       .  A
C1627      H1640   1.084       .  S
C1628      C1629   1.410       .  A
C1628      C1631   1.488       .  S
C1629      C1630   1.408       .  A
C1629      H1641   1.083       .  S
C1630      H1642   1.083       .  S
C1631      C1632   1.344       .  D
C1631      H1643   1.087       .  S
C1632      C1633   1.489       .  S
C1632      H1644   1.087       .  S
C1633      C1634   1.400       .  A
C1633      C1638   1.409       .  A
C1634      C1635   1.397       .  A
C1634      H1645   1.084       .  S
C1635      C1636   1.409       .  A
C1635      H1646   1.083       .  S
C1636      C1637   1.408       .  A
C1637      C1638   1.407       .  A
C1637      H1647   1.083       .  S
C1638      H1648   1.083       .  S
C1649      C1650   1.406       .  A
C1649      C1654   1.408       .  A
C1650      C1651   1.401       .  A
C1650      H1663   1.083       .  S
C1651      C1652   1.404       .  A
C1651      H1664   1.083       .  S
C1652      C1653   1.406       .  A
C1652      C1655   1.489       .  S
C1653      C1654   1.401       .  A
C1653      H1665   1.082       .  S
C1654      H1666   1.083       .  S
C1655      C1656   1.350       .  D
C1655      H1667   1.086       .  S
C1656      C1657   1.490       .  S
C1656      H1668   1.086       .  S
C1657      C1658   1.406       .  A
C1657      C1662   1.405       .  A
C1658      C1659   1.403       .  A
C1658      H1669   1.083       .  S
C1659      C1660   1.406       .  A
C1659      H1670   1.083       .  S
C1660      C1661   1.408       .  A
C1661      C1662   1.397       .  A
C1661      H1671   1.083       .  S
C1662      H1672   1.082       .  S
C1673      C1674   1.406       .  A
C1673      C1678   1.407       .  A
C1674      C1675   1.400       .  A
C1674      H1687   1.083       .  S
C1675      C1676   1.406       .  A
C1675      H1688   1.083       .  S
C1676      C1677   1.409       .  A
C1676      C1679   1.493       .  S
C1677      C1678   1.400       .  A
C1677      H1689   1.080       .  S
C1678      H1690   1.083       .  S
C1679      C1680   1.351       .  D
C1679      H1691   1.084       .  S
C1680      C1681   1.490       .  S
C1680      H1692   1.083       .  S
C1681      C1682   1.405       .  A
C1681      C1686   1.407       .  A
C1682      C1683   1.400       .  A
C1682      H1693   1.083       .  S
C1683      C1684   1.406       .  A
C1683      H1694   1.083       .  S
C1684      C1685   1.407       .  A
C1685      C1686   1.399       .  A
C1685      H1695   1.083       .  S
C1686      H1696   1.081       .  S
C1697      C1698   1.407       .  A
C1697      C1702   1.407       .  A
C1698      C1699   1.400       .  A
C1698      H1711   1.083       .  S
C1699      C1700   1.404       .  A
C1699      H1712   1.083       .  S
C1700      C1701   1.409       .  A
C1700      C1703   1.491       .  S
C1701      C1702   1.400       .  A
C1701      H1713   1.081       .  S
C1702      H1714   1.083       .  S
C1703      C1704   1.349       .  D
C1703      H1715   1.083       .  S
C1704      C1705   1.492       .  S
C1704      H1716   1.085       .  S
C1705      C1706   1.404       .  A
C1705      C1710   1.410       .  A
C1706      C1707   1.397       .  A
C1706      H1717   1.083       .  S
C1707      C1708   1.406       .  A
C1707      H1718   1.083       .  S
C1708      C1709   1.406       .  A
C1709      C1710   1.403       .  A
C1709      H1719   1.083       .  S
C1710      H1720   1.080       .  S
C1721      C1722   1.406       .  A
C1721      C1726   1.406       .  A
C1722      C1723   1.399       .  A
C1722      H1735   1.083       .  S
C1723      C1724   1.403       .  A
C1723      H1736   1.083       .  S
C1724      C1725   1.407       .  A
C1724      C1727   1.484       .  S
C1725      C1726   1.398       .  A
C1725      H1737   1.082       .  S
C1726      H1738   1.083       .  S
C1727      C1728   1.346       .  D
C1727      H1739   1.086       .  S
C1728      C1729   1.483       .  S
C1728      H1740   1.086       .  S
C1729      C1730   1.401       .  A
C1729      C1734   1.407       .  A
C1730      C1731   1.396       .  A
C1730      H1741   1.083       .  S
C1731      C1732   1.406       .  A
C1731      H1742   1.083       .  S
C1732      C1733   1.406       .  A
C1733      C1734   1.399       .  A
C1733      H1743   1.083       .  S
C1734      H1744   1.082       .  S
C1745      C1746   1.405       .  A
C1745      C1750   1.406       .  A
C1746      C1747   1.395       .  A
C1746      H1759   1.083       .  S
C1747      C1748   1.402       .  A
C1747      H1760   1.084       .  S
C1748      C1749   1.408       .  A
C1748      C1751   1.483       .  S
C1749      C1750   1.400       .  A
C1749      H1761   1.082       .  S
C1750      H1762   1.083       .  S
C1751      C1752   1.347       .  D
C1751      H1763   1.086       .  S
C1752      C1753   1.486       .  S
C1752      H1764   1.085       .  S
C1753      C1754   1.405       .  A
C1753      C1758   1.405       .  A
C1754      C1755   1.402       .  A
C1754      H1765   1.083       .  S
C1755      C1756   1.405       .  A
C1755      H1766   1.083       .  S
C1756      C1757   1.406       .  A
C1757      C1758   1.392       .  A
C1757      H1767   1.083       .  S
C1758      H1768   1.082       .  S
C1769      C1770   1.404       .  A
C1769      C1774   1.403       .  A
C1770      C1771   1.393       .  A
C1770      H1783   1.083       .  S
C1771      C1772   1.401       .  A
C1771      H1784   1.084       .  S
C1772      C1773   1.408       .  A
C1772      C1775   1.480       .  S
C1773      C1774   1.400       .  A
C1773      H1785   1.082       .  S
C1774      H1786   1.083       .  S
C1775      C1776   1.346       .  D
C1775      H1787   1.085       .  S
C1776      C1777   1.486       .  S
C1776      H1788   1.086       .  S
C1777      C1778   1.405       .  A
C1777      C1782   1.406       .  A
C1778      C1779   1.400       .  A
C1778      H1789   1.083       .  S
C1779      C1780   1.406       .  A
C1779      H1790   1.083       .  S
C1780      C1781   1.405       .  A
C1781      C1782   1.393       .  A
C1781      H1791   1.083       .  S
C1782      H1792   1.081       .  S
C1793      C1794   1.406       .  A
C1793      C1798   1.406       .  A
C1794      C1795   1.398       .  A
C1794      H1807   1.083       .  S
C1795      C1796   1.402       .  A
C1795      H1808   1.083       .  S
C1796      C1797   1.407       .  A
C1796      C1799   1.485       .  S
C1797      C1798   1.400       .  A
C1797      H1809   1.082       .  S
C1798      H1810   1.083       .  S
C1799      C1800   1.346   1_556  D
C1799      H1811   1.086       .  S
C1800      C1801   1.485       .  S
C1800      H1812   1.086   1_554  S
C1801      C1802   1.402       .  A
C1801      C1806   1.407       .  A
C1802      C1803   1.398       .  A
C1802      H1813   1.083       .  S
C1803      C1804   1.406       .  A
C1803      H1814   1.083       .  S
C1804      C1805   1.407       .  A
C1805      C1806   1.400       .  A
C1805      H1815   1.083       .  S
C1806      H1816   1.082       .  S
C1817      C1818   1.406       .  A
C1817      C1822   1.406       .  A
C1818      C1819   1.402       .  A
C1818      H1831   1.083       .  S
C1819      C1820   1.405       .  A
C1819      H1832   1.083       .  S
C1820      C1821   1.407       .  A
C1820      C1823   1.489       .  S
C1821      C1822   1.398       .  A
C1821      H1833   1.082       .  S
C1822      H1834   1.083       .  S
C1823      C1824   1.348       .  D
C1823      H1835   1.086       .  S
C1824      C1825   1.486       .  S
C1824      H1836   1.086       .  S
C1825      C1826   1.402       .  A
C1825      C1830   1.407       .  A
C1826      C1827   1.398       .  A
C1826      H1837   1.083       .  S
C1827      C1828   1.406       .  A
C1827      H1838   1.083       .  S
C1828      C1829   1.407       .  A
C1829      C1830   1.402       .  A
C1829      H1839   1.083       .  S
C1830      H1840   1.082       .  S
C1841      C1842   1.406       .  A
C1841      C1846   1.406       .  A
C1842      C1843   1.398       .  A
C1842      H1855   1.083       .  S
C1843      C1844   1.404       .  A
C1843      H1856   1.084       .  S
C1844      C1845   1.410       .  A
C1844      C1847   1.492       .  S
C1845      C1846   1.401       .  A
C1845      H1857   1.080       .  S
C1846      H1858   1.083       .  S
C1847      C1848   1.349   1_554  D
C1847      H1859   1.084       .  S
C1848      C1849   1.490       .  S
C1848      H1860   1.083   1_556  S
C1849      C1850   1.403       .  A
C1849      C1854   1.409       .  A
C1850      C1851   1.398       .  A
C1850      H1861   1.083   1_545  S
C1851      C1852   1.407       .  A
C1851      H1862   1.083   1_545  S
C1852      C1853   1.406       .  A
C1853      C1854   1.400       .  A
C1853      H1863   1.083       .  S
C1854      H1864   1.081       .  S
C1865      C1866   1.405       .  A
C1865      C1870   1.407       .  A
C1866      C1867   1.404       .  A
C1866      H1879   1.083       .  S
C1867      C1868   1.406       .  A
C1867      H1880   1.083       .  S
C1868      C1869   1.404       .  A
C1868      C1871   1.486       .  S
C1869      C1870   1.391       .  A
C1869      H1881   1.082       .  S
C1870      H1882   1.083       .  S
C1871      C1872   1.349       .  D
C1871      H1883   1.085       .  S
C1872      C1873   1.483       .  S
C1872      H1884   1.085       .  S
C1873      C1874   1.404       .  A
C1873      C1878   1.406       .  A
C1874      C1875   1.397       .  A
C1874      H1885   1.083       .  S
C1875      C1876   1.404       .  A
C1875      H1886   1.083       .  S
C1876      C1877   1.406       .  A
C1877      C1878   1.398       .  A
C1877      H1887   1.083       .  S
C1878      H1888   1.082       .  S
C1889      C1890   1.408       .  A
C1889      C1894   1.406       .  A
C1890      C1891   1.395       .  A
C1890      H1903   1.083       .  S
C1891      C1892   1.400       .  A
C1891      H1904   1.083       .  S
C1892      C1893   1.408       .  A
C1892      C1895   1.483       .  S
C1893      C1894   1.401       .  A
C1893      H1905   1.083       .  S
C1894      H1906   1.083       .  S
C1895      C1896   1.342       .  D
C1895      H1907   1.087       .  S
C1896      C1897   1.480       .  S
C1896      H1908   1.086       .  S
C1897      C1898   1.399       .  A
C1897      C1902   1.409       .  A
C1898      C1899   1.392       .  A
C1898      H1909   1.084       .  S
C1899      C1900   1.406       .  A
C1899      H1910   1.083       .  S
C1900      C1901   1.405       .  A
C1901      C1902   1.404       .  A
C1901      H1911   1.083       .  S
C1902      H1912   1.083       .  S
C1913      C1914   1.406       .  A
C1913      C1918   1.407   1_545  A
C1914      C1915   1.398       .  A
C1914      H1927   1.083       .  S
C1915      C1916   1.403   1_545  A
C1915      H1928   1.083       .  S
C1916      C1917   1.407       .  A
C1916      C1919   1.486       .  S
C1917      C1918   1.400       .  A
C1917      H1929   1.082       .  S
C1918      H1930   1.083       .  S
C1919      C1920   1.347       .  D
C1919      H1931   1.086       .  S
C1920      C1921   1.486       .  S
C1920      H1932   1.086       .  S
C1921      C1922   1.402       .  A
C1921      C1926   1.408       .  A
C1922      C1923   1.398       .  A
C1922      H1933   1.083       .  S
C1923      C1924   1.407       .  A
C1923      H1934   1.083       .  S
C1924      C1925   1.405       .  A
C1925      C1926   1.401       .  A
C1925      H1935   1.083       .  S
C1926      H1936   1.082       .  S
C1937      C1938   1.406       .  A
C1937      C1942   1.405       .  A
C1938      C1939   1.397       .  A
C1938      H1951   1.083       .  S
C1939      C1940   1.402       .  A
C1939      H1952   1.083       .  S
C1940      C1941   1.409       .  A
C1940      C1943   1.487       .  S
C1941      C1942   1.398       .  A
C1941      H1953   1.081       .  S
C1942      H1954   1.083       .  S
C1943      C1944   1.347       .  D
C1943      H1955   1.083       .  S
C1944      C1945   1.489   1_556  S
C1944      H1956   1.085       .  S
C1945      C1946   1.403       .  A
C1945      C1950   1.411       .  A
C1946      C1947   1.394       .  A
C1946      H1957   1.083       .  S
C1947      C1948   1.405       .  A
C1947      H1958   1.083       .  S
C1948      C1949   1.406       .  A
C1949      C1950   1.401       .  A
C1949      H1959   1.083       .  S
C1950      H1960   1.079       .  S
C1961      C1962   1.406       .  A
C1961      C1966   1.408   1_545  A
C1962      C1963   1.402       .  A
C1962      H1975   1.083       .  S
C1963      C1964   1.406       .  A
C1963      H1976   1.083       .  S
C1964      C1965   1.406   1_545  A
C1964      C1967   1.489       .  S
C1965      C1966   1.398       .  A
C1965      H1977   1.082       .  S
C1966      H1978   1.083       .  S
C1967      C1968   1.350   1_445  D
C1967      H1979   1.086   1_455  S
C1968      C1969   1.489       .  S
C1968      H1980   1.086   1_655  S
C1969      C1970   1.406       .  A
C1969      C1974   1.405       .  A
C1970      C1971   1.403       .  A
C1970      H1981   1.083       .  S
C1971      C1972   1.406       .  A
C1971      H1982   1.083       .  S
C1972      C1973   1.407       .  A
C1973      C1974   1.397       .  A
C1973      H1983   1.083   1_565  S
C1974      H1984   1.082   1_565  S
C1985      C1986   1.407       .  A
C1985      C1990   1.407       .  A
C1986      C1987   1.399       .  A
C1986      H1999   1.083       .  S
C1987      C1988   1.404       .  A
C1987      H2000   1.084       .  S
C1988      C1989   1.410       .  A
C1988      C1991   1.494       .  S
C1989      C1990   1.402       .  A
C1989      H2001   1.080       .  S
C1990      H2002   1.083       .  S
C1991      C1992   1.350   1_556  D
C1991      H2003   1.084   1_556  S
C1992      C1993   1.494       .  S
C1992      H2004   1.084       .  S
C1993      C1994   1.405       .  A
C1993      C1998   1.410       .  A
C1994      C1995   1.399       .  A
C1994      H2005   1.083       .  S
C1995      C1996   1.406       .  A
C1995      H2006   1.083       .  S
C1996      C1997   1.407       .  A
C1997      C1998   1.402       .  A
C1997      H2007   1.083       .  S
C1998      H2008   1.080       .  S
C2009      C2010   1.405       .  A
C2009      C2014   1.406       .  A
C2010      C2011   1.404       .  A
C2010      H2023   1.083       .  S
C2011      C2012   1.407       .  A
C2011      H2024   1.083       .  S
C2012      C2013   1.404       .  A
C2012      C2015   1.486       .  S
C2013      C2014   1.390       .  A
C2013      H2025   1.082       .  S
C2014      H2026   1.083       .  S
C2015      C2016   1.348       .  D
C2015      H2027   1.086       .  S
C2016      C2017   1.482       .  S
C2016      H2028   1.085       .  S
C2017      C2018   1.402       .  A
C2017      C2022   1.406       .  A
C2018      C2019   1.396       .  A
C2018      H2029   1.083       .  S
C2019      C2020   1.405       .  A
C2019      H2030   1.083       .  S
C2020      C2021   1.406       .  A
C2021      C2022   1.398       .  A
C2021      H2031   1.083       .  S
C2022      H2032   1.082       .  S
C2033      C2034   1.407       .  A
C2033      C2038   1.404       .  A
C2034      C2035   1.395       .  A
C2034      H2047   1.083       .  S
C2035      C2036   1.400       .  A
C2035      H2048   1.083       .  S
C2036      C2037   1.410       .  A
C2036      C2039   1.485       .  S
C2037      C2038   1.404       .  A
C2037      H2049   1.082       .  S
C2038      H2050   1.083       .  S
C2039      C2040   1.344       .  D
C2039      H2051   1.086       .  S
C2040      C2041   1.486       .  S
C2040      H2052   1.086       .  S
C2041      C2042   1.400       .  A
C2041      C2046   1.409       .  A
C2042      C2043   1.395       .  A
C2042      H2053   1.084       .  S
C2043      C2044   1.408       .  A
C2043      H2054   1.083       .  S
C2044      C2045   1.407       .  A
C2045      C2046   1.404       .  A
C2045      H2055   1.083       .  S
C2046      H2056   1.082       .  S
C2057      C2058   1.408       .  A
C2057      C2062   1.405       .  A
C2058      C2059   1.396       .  A
C2058      H2071   1.083       .  S
C2059      C2060   1.401       .  A
C2059      H2072   1.084       .  S
C2060      C2061   1.410       .  A
C2060      C2063   1.488       .  S
C2061      C2062   1.404       .  A
C2061      H2073   1.082       .  S
C2062      H2074   1.083       .  S
C2063      C2064   1.346   1_655  D
C2063      H2075   1.085       .  S
C2064      C2065   1.490       .  S
C2064      H2076   1.086   1_455  S
C2065      C2066   1.403       .  A
C2065      C2070   1.410       .  A
C2066      C2067   1.397       .  A
C2066      H2077   1.083       .  S
C2067      C2068   1.406       .  A
C2067      H2078   1.083       .  S
C2068      C2069   1.407       .  A
C2069      C2070   1.402       .  A
C2069      H2079   1.083       .  S
C2070      H2080   1.081       .  S
C2081      C2082   1.406       .  A
C2081      C2086   1.406       .  A
C2082      C2083   1.399       .  A
C2082      H2095   1.083       .  S
C2083      C2084   1.403       .  A
C2083      H2096   1.083       .  S
C2084      C2085   1.405       .  A
C2084      C2087   1.482       .  S
C2085      C2086   1.397       .  A
C2085      H2097   1.082       .  S
C2086      H2098   1.083       .  S
C2087      C2088   1.347       .  D
C2087      H2099   1.086       .  S
C2088      C2089   1.483       .  S
C2088      H2100   1.086       .  S
C2089      C2090   1.403       .  A
C2089      C2094   1.405       .  A
C2090      C2091   1.400       .  A
C2090      H2101   1.083       .  S
C2091      C2092   1.406       .  A
C2091      H2102   1.083       .  S
C2092      C2093   1.406       .  A
C2093      C2094   1.397       .  A
C2093      H2103   1.083       .  S
C2094      H2104   1.082       .  S
C2105      C2106   1.405       .  A
C2105      C2110   1.408       .  A
C2106      C2107   1.400       .  A
C2106      H2119   1.083       .  S
C2107      C2108   1.404       .  A
C2107      H2120   1.083       .  S
C2108      C2109   1.406       .  A
C2108      C2111   1.485       .  S
C2109      C2110   1.398       .  A
C2109      H2121   1.082       .  S
C2110      H2122   1.083       .  S
C2111      C2112   1.348   1_655  D
C2111      H2123   1.086   1_655  S
C2112      C2113   1.486       .  S
C2112      H2124   1.086   1_455  S
C2113      C2114   1.405       .  A
C2113      C2118   1.405       .  A
C2114      C2115   1.402       .  A
C2114      H2125   1.083       .  S
C2115      C2116   1.406       .  A
C2115      H2126   1.083       .  S
C2116      C2117   1.406       .  A
C2117      C2118   1.395       .  A
C2117      H2127   1.083       .  S
C2118      H2128   1.082       .  S
C2129      C2130   1.405       .  A
C2129      C2134   1.406       .  A
C2130      C2131   1.401       .  A
C2130      H2143   1.083       .  S
C2131      C2132   1.404       .  A
C2131      H2144   1.083       .  S
C2132      C2133   1.406       .  A
C2132      C2135   1.487       .  S
C2133      C2134   1.398       .  A
C2133      H2145   1.082       .  S
C2134      H2146   1.083       .  S
C2135      C2136   1.347       .  D
C2135      H2147   1.086       .  S
C2136      C2137   1.484       .  S
C2136      H2148   1.086       .  S
C2137      C2138   1.401       .  A
C2137      C2142   1.408       .  A
C2138      C2139   1.397       .  A
C2138      H2149   1.083       .  S
C2139      C2140   1.406       .  A
C2139      H2150   1.083       .  S
C2140      C2141   1.406       .  A
C2141      C2142   1.402       .  A
C2141      H2151   1.083       .  S
C2142      H2152   1.082       .  S
C2153      C2154   1.406       .  A
C2153      C2158   1.406       .  A
C2154      C2155   1.399       .  A
C2154      H2167   1.083       .  S
C2155      C2156   1.405       .  A
C2155      H2168   1.083       .  S
C2156      C2157   1.410       .  A
C2156      C2159   1.494       .  S
C2157      C2158   1.399       .  A
C2157      H2169   1.079       .  S
C2158      H2170   1.083       .  S
C2159      C2160   1.350       .  D
C2159      H2171   1.084       .  S
C2160      C2161   1.490       .  S
C2160      H2172   1.082       .  S
C2161      C2162   1.404       .  A
C2161      C2166   1.409       .  A
C2162      C2163   1.397       .  A
C2162      H2173   1.083       .  S
C2163      C2164   1.405       .  A
C2163      H2174   1.083       .  S
C2164      C2165   1.407       .  A
C2165      C2166   1.401       .  A
C2165      H2175   1.083       .  S
C2166      H2176   1.081       .  S
C2177      C2178   1.406       .  A
C2177      C2182   1.407       .  A
C2178      C2179   1.398       .  A
C2178      H2191   1.083       .  S
C2179      C2180   1.403       .  A
C2179      H2192   1.083       .  S
C2180      C2181   1.408       .  A
C2180      C2183   1.487       .  S
C2181      C2182   1.400       .  A
C2181      H2193   1.082       .  S
C2182      H2194   1.083       .  S
C2183      C2184   1.345       .  D
C2183      H2195   1.087       .  S
C2184      C2185   1.482       .  S
C2184      H2196   1.085       .  S
C2185      C2186   1.400       .  A
C2185      C2190   1.410       .  A
C2186      C2187   1.394       .  A
C2186      H2197   1.084       .  S
C2187      C2188   1.406       .  A
C2187      H2198   1.084       .  S
C2188      C2189   1.403       .  A
C2189      C2190   1.404       .  A
C2189      H2199   1.083       .  S
C2190      H2200   1.082       .  S
C2201      C2202   1.406       .  A
C2201      C2206   1.407       .  A
C2202      C2203   1.401       .  A
C2202      H2215   1.083       .  S
C2203      C2204   1.404       .  A
C2203      H2216   1.083       .  S
C2204      C2205   1.404       .  A
C2204      C2207   1.484       .  S
C2205      C2206   1.397       .  A
C2205      H2217   1.082       .  S
C2206      H2218   1.083       .  S
C2207      C2208   1.349       .  D
C2207      H2219   1.086       .  S
C2208      C2209   1.485       .  S
C2208      H2220   1.086       .  S
C2209      C2210   1.405       .  A
C2209      C2214   1.403       .  A
C2210      C2211   1.403       .  A
C2210      H2221   1.083       .  S
C2211      C2212   1.405       .  A
C2211      H2222   1.083       .  S
C2212      C2213   1.408       .  A
C2213      C2214   1.394       .  A
C2213      H2223   1.083       .  S
C2214      H2224   1.082       .  S
C2225      C2226   1.405       .  A
C2225      C2230   1.408       .  A
C2226      C2227   1.401       .  A
C2226      H2239   1.083       .  S
C2227      C2228   1.405       .  A
C2227      H2240   1.083       .  S
C2228      C2229   1.405   1_545  A
C2228      C2231   1.487       .  S
C2229      C2230   1.399   1_565  A
C2229      H2241   1.082       .  S
C2230      H2242   1.083   1_545  S
C2231      C2232   1.350   1_645  D
C2231      H2243   1.086   1_655  S
C2232      C2233   1.489       .  S
C2232      H2244   1.086   1_455  S
C2233      C2234   1.406       .  A
C2233      C2238   1.405       .  A
C2234      C2235   1.404       .  A
C2234      H2245   1.083       .  S
C2235      C2236   1.406       .  A
C2235      H2246   1.083       .  S
C2236      C2237   1.407       .  A
C2237      C2238   1.396       .  A
C2237      H2247   1.083   1_565  S
C2238      H2248   1.082   1_565  S
C2249      C2250   1.406       .  A
C2249      C2254   1.407       .  A
C2250      C2251   1.400       .  A
C2250      H2263   1.083       .  S
C2251      C2252   1.403       .  A
C2251      H2264   1.083       .  S
C2252      C2253   1.407   1_545  A
C2252      C2255   1.486       .  S
C2253      C2254   1.399   1_565  A
C2253      H2265   1.082       .  S
C2254      H2266   1.083   1_545  S
C2255      C2256   1.347   1_545  D
C2255      H2267   1.086       .  S
C2256      C2257   1.486       .  S
C2256      H2268   1.086       .  S
C2257      C2258   1.403       .  A
C2257      C2262   1.408       .  A
C2258      C2259   1.398       .  A
C2258      H2269   1.083   1_565  S
C2259      C2260   1.405       .  A
C2259      H2270   1.083       .  S
C2260      C2261   1.405       .  A
C2261      C2262   1.400       .  A
C2261      H2271   1.083       .  S
C2262      H2272   1.082       .  S
C2273      C2274   1.406       .  A
C2273      C2278   1.406       .  A
C2274      C2275   1.397       .  A
C2274      H2287   1.083       .  S
C2275      C2276   1.404       .  A
C2275      H2288   1.084       .  S
C2276      C2277   1.411       .  A
C2276      C2279   1.493       .  S
C2277      C2278   1.401       .  A
C2277      H2289   1.079       .  S
C2278      H2290   1.083       .  S
C2279      C2280   1.349       .  D
C2279      H2291   1.084       .  S
C2280      C2281   1.490       .  S
C2280      H2292   1.083       .  S
C2281      C2282   1.404       .  A
C2281      C2286   1.410       .  A
C2282      C2283   1.398       .  A
C2282      H2293   1.083       .  S
C2283      C2284   1.405       .  A
C2283      H2294   1.083       .  S
C2284      C2285   1.405       .  A
C2285      C2286   1.400       .  A
C2285      H2295   1.083       .  S
C2286      H2296   1.081       .  S
C2297      C2298   1.406       .  A
C2297      C2302   1.408       .  A
C2298      C2299   1.403       .  A
C2298      H2311   1.083       .  S
C2299      C2300   1.406       .  A
C2299      H2312   1.083       .  S
C2300      C2301   1.405       .  A
C2300      C2303   1.488       .  S
C2301      C2302   1.398       .  A
C2301      H2313   1.082       .  S
C2302      H2314   1.083       .  S
C2303      C2304   1.350       .  D
C2303      H2315   1.086       .  S
C2304      C2305   1.489       .  S
C2304      H2316   1.086       .  S
C2305      C2306   1.406       .  A
C2305      C2310   1.404       .  A
C2306      C2307   1.404       .  A
C2306      H2317   1.083       .  S
C2307      C2308   1.406       .  A
C2307      H2318   1.083       .  S
C2308      C2309   1.409       .  A
C2309      C2310   1.397       .  A
C2309      H2319   1.083       .  S
C2310      H2320   1.082       .  S
C2321      C2322   1.406       .  A
C2321      C2326   1.405       .  A
C2322      C2323   1.397       .  A
C2322      H2335   1.083       .  S
C2323      C2324   1.402       .  A
C2323      H2336   1.083       .  S
C2324      C2325   1.406       .  A
C2324      C2327   1.481       .  S
C2325      C2326   1.396       .  A
C2325      H2337   1.082       .  S
C2326      H2338   1.083       .  S
C2327      C2328   1.345       .  D
C2327      H2339   1.086       .  S
C2328      C2329   1.481       .  S
C2328      H2340   1.086       .  S
C2329      C2330   1.402       .  A
C2329      C2334   1.406       .  A
C2330      C2331   1.397       .  A
C2330      H2341   1.084       .  S
C2331      C2332   1.406       .  A
C2331      H2342   1.083       .  S
C2332      C2333   1.406       .  A
C2333      C2334   1.397       .  A
C2333      H2343   1.083       .  S
C2334      H2344   1.082       .  S
C2345      C2346   1.404       .  A
C2345      C2350   1.406       .  A
C2346      C2347   1.403       .  A
C2346      H2359   1.083       .  S
C2347      C2348   1.407       .  A
C2347      H2360   1.083       .  S
C2348      C2349   1.407       .  A
C2348      C2351   1.490       .  S
C2349      C2350   1.394       .  A
C2349      H2361   1.080       .  S
C2350      H2362   1.083       .  S
C2351      C2352   1.349       .  D
C2351      H2363   1.085       .  S
C2352      C2353   1.485       .  S
C2352      H2364   1.084       .  S
C2353      C2354   1.403       .  A
C2353      C2358   1.408       .  A
C2354      C2355   1.396       .  A
C2354      H2365   1.083       .  S
C2355      C2356   1.405       .  A
C2355      H2366   1.083       .  S
C2356      C2357   1.405       .  A
C2357      C2358   1.400       .  A
C2357      H2367   1.083       .  S
C2358      H2368   1.082       .  S
C2369      C2370   1.406       .  A
C2369      C2374   1.406       .  A
C2370      C2371   1.395       .  A
C2370      H2383   1.083       .  S
C2371      C2372   1.401       .  A
C2371      H2384   1.083       .  S
C2372      C2373   1.406       .  A
C2372      C2375   1.479   1_565  S
C2373      C2374   1.398       .  A
C2373      H2385   1.082       .  S
C2374      H2386   1.083       .  S
C2375      C2376   1.346       .  D
C2375      H2387   1.086       .  S
C2376      C2377   1.482       .  S
C2376      H2388   1.086       .  S
C2377      C2378   1.405       .  A
C2377      C2382   1.405       .  A
C2378      C2379   1.401       .  A
C2378      H2389   1.083       .  S
C2379      C2380   1.404       .  A
C2379      H2390   1.083       .  S
C2380      C2381   1.406       .  A
C2381      C2382   1.392       .  A
C2381      H2391   1.083       .  S
C2382      H2392   1.082       .  S
C2393      C2394   1.406       .  A
C2393      C2398   1.408       .  A
C2394      C2395   1.403       .  A
C2394      H2407   1.083       .  S
C2395      C2396   1.405       .  A
C2395      H2408   1.083       .  S
C2396      C2397   1.405       .  A
C2396      C2399   1.489       .  S
C2397      C2398   1.397       .  A
C2397      H2409   1.082       .  S
C2398      H2410   1.083       .  S
C2399      C2400   1.349       .  D
C2399      H2411   1.086       .  S
C2400      C2401   1.488       .  S
C2400      H2412   1.086       .  S
C2401      C2402   1.405       .  A
C2401      C2406   1.406       .  A
C2402      C2403   1.401       .  A
C2402      H2413   1.083       .  S
C2403      C2404   1.405       .  A
C2403      H2414   1.083       .  S
C2404      C2405   1.408       .  A
C2405      C2406   1.400       .  A
C2405      H2415   1.083       .  S
C2406      H2416   1.082       .  S
C2417      C2418   1.405       .  A
C2417      C2422   1.406       .  A
C2418      C2419   1.398       .  A
C2418      H2431   1.083       .  S
C2419      C2420   1.404       .  A
C2419      H2432   1.083       .  S
C2420      C2421   1.409       .  A
C2420      C2423   1.489       .  S
C2421      C2422   1.399       .  A
C2421      H2433   1.080       .  S
C2422      H2434   1.083       .  S
C2423      C2424   1.349   1_554  D
C2423      H2435   1.085       .  S
C2424      C2425   1.487       .  S
C2424      H2436   1.083   1_556  S
C2425      C2426   1.403       .  A
C2425      C2430   1.408       .  A
C2426      C2427   1.398       .  A
C2426      H2437   1.083       .  S
C2427      C2428   1.406       .  A
C2427      H2438   1.083       .  S
C2428      C2429   1.406       .  A
C2429      C2430   1.398       .  A
C2429      H2439   1.083       .  S
C2430      H2440   1.081       .  S
C2441      C2442   1.407       .  A
C2441      C2446   1.405       .  A
C2442      C2443   1.395       .  A
C2442      H2455   1.083       .  S
C2443      C2444   1.400       .  A
C2443      H2456   1.084       .  S
C2444      C2445   1.411       .  A
C2444      C2447   1.489       .  S
C2445      C2446   1.406       .  A
C2445      H2457   1.082       .  S
C2446      H2458   1.083       .  S
C2447      C2448   1.345       .  D
C2447      H2459   1.086       .  S
C2448      C2449   1.489       .  S
C2448      H2460   1.087       .  S
C2449      C2450   1.400       .  A
C2449      C2454   1.410       .  A
C2450      C2451   1.395       .  A
C2450      H2461   1.083       .  S
C2451      C2452   1.408       .  A
C2451      H2462   1.083       .  S
C2452      C2453   1.408       .  A
C2453      C2454   1.407       .  A
C2453      H2463   1.083       .  S
C2454      H2464   1.082       .  S
C2465      C2466   1.406       .  A
C2465      C2470   1.406       .  A
C2466      C2467   1.400       .  A
C2466      H2479   1.083       .  S
C2467      C2468   1.404       .  A
C2467      H2480   1.083       .  S
C2468      C2469   1.407       .  A
C2468      C2471   1.487       .  S
C2469      C2470   1.398       .  A
C2469      H2481   1.082       .  S
C2470      H2482   1.083       .  S
C2471      C2472   1.347       .  D
C2471      H2483   1.086       .  S
C2472      C2473   1.485       .  S
C2472      H2484   1.086       .  S
C2473      C2474   1.402       .  A
C2473      C2478   1.408       .  A
C2474      C2475   1.397       .  A
C2474      H2485   1.083       .  S
C2475      C2476   1.406       .  A
C2475      H2486   1.083       .  S
C2476      C2477   1.406       .  A
C2477      C2478   1.401       .  A
C2477      H2487   1.083       .  S
C2478      H2488   1.082       .  S
C2489      C2490   1.406       .  A
C2489      C2494   1.406       .  A
C2490      C2491   1.400       .  A
C2490      H2503   1.083       .  S
C2491      C2492   1.405       .  A
C2491      H2504   1.083       .  S
C2492      C2493   1.409       .  A
C2492      C2495   1.494   1_556  S
C2493      C2494   1.400       .  A
C2493      H2505   1.080       .  S
C2494      H2506   1.083       .  S
C2495      C2496   1.351       .  D
C2495      H2507   1.084       .  S
C2496      C2497   1.494       .  S
C2496      H2508   1.084       .  S
C2497      C2498   1.405       .  A
C2497      C2502   1.410       .  A
C2498      C2499   1.399       .  A
C2498      H2509   1.083       .  S
C2499      C2500   1.406       .  A
C2499      H2510   1.083       .  S
C2500      C2501   1.407       .  A
C2501      C2502   1.401       .  A
C2501      H2511   1.083       .  S
C2502      H2512   1.080       .  S
C2513      C2514   1.405       .  A
C2513      C2518   1.407       .  A
C2514      C2515   1.401       .  A
C2514      H2527   1.083       .  S
C2515      C2516   1.405   1_545  A
C2515      H2528   1.083   1_545  S
C2516      C2517   1.404   1_565  A
C2516      C2519   1.482       .  S
C2517      C2518   1.396       .  A
C2517      H2529   1.083   1_545  S
C2518      H2530   1.083       .  S
C2519      C2520   1.348       .  D
C2519      H2531   1.087       .  S
C2520      C2521   1.484       .  S
C2520      H2532   1.087       .  S
C2521      C2522   1.405       .  A
C2521      C2526   1.403       .  A
C2522      C2523   1.404       .  A
C2522      H2533   1.084       .  S
C2523      C2524   1.407       .  A
C2523      H2534   1.082       .  S
C2524      C2525   1.408       .  A
C2525      C2526   1.394       .  A
C2525      H2535   1.083       .  S
C2526      H2536   1.083       .  S
C2537      C2538   1.405       .  A
C2537      C2542   1.407       .  A
C2538      C2539   1.402       .  A
C2538      H2551   1.083       .  S
C2539      C2540   1.406       .  A
C2539      H2552   1.083       .  S
C2540      C2541   1.407       .  A
C2540      C2543   1.491       .  S
C2541      C2542   1.396       .  A
C2541      H2553   1.081       .  S
C2542      H2554   1.083       .  S
C2543      C2544   1.348       .  D
C2543      H2555   1.086       .  S
C2544      C2545   1.485       .  S
C2544      H2556   1.084       .  S
C2545      C2546   1.401       .  A
C2545      C2550   1.410       .  A
C2546      C2547   1.394       .  A
C2546      H2557   1.084       .  S
C2547      C2548   1.405       .  A
C2547      H2558   1.084       .  S
C2548      C2549   1.404       .  A
C2549      C2550   1.404       .  A
C2549      H2559   1.083       .  S
C2550      H2560   1.082       .  S
C2561      C2562   1.408       .  A
C2561      C2566   1.406       .  A
C2562      C2563   1.396       .  A
C2562      H2575   1.083       .  S
C2563      C2564   1.400       .  A
C2563      H2576   1.084       .  S
C2564      C2565   1.408       .  A
C2564      C2567   1.485       .  S
C2565      C2566   1.402       .  A
C2565      H2577   1.082       .  S
C2566      H2578   1.083       .  S
C2567      C2568   1.342       .  D
C2567      H2579   1.087       .  S
C2568      C2569   1.480       .  S
C2568      H2580   1.086       .  S
C2569      C2570   1.397       .  A
C2569      C2574   1.408       .  A
C2570      C2571   1.392       .  A
C2570      H2581   1.084       .  S
C2571      C2572   1.408       .  A
C2571      H2582   1.083       .  S
C2572      C2573   1.406       .  A
C2573      C2574   1.406       .  A
C2573      H2583   1.083       .  S
C2574      H2584   1.083       .  S
C2585      C2586   1.406       .  A
C2585      C2590   1.406       .  A
C2586      C2587   1.401       .  A
C2586      H2599   1.083       .  S
C2587      C2588   1.404       .  A
C2587      H2600   1.083       .  S
C2588      C2589   1.406       .  A
C2588      C2591   1.485       .  S
C2589      C2590   1.395       .  A
C2589      H2601   1.082       .  S
C2590      H2602   1.083       .  S
C2591      C2592   1.346       .  D
C2591      H2603   1.086       .  S
C2592      C2593   1.481       .  S
C2592      H2604   1.086       .  S
C2593      C2594   1.401       .  A
C2593      C2598   1.407       .  A
C2594      C2595   1.394       .  A
C2594      H2605   1.084       .  S
C2595      C2596   1.406       .  A
C2595      H2606   1.083       .  S
C2596      C2597   1.406       .  A
C2597      C2598   1.402       .  A
C2597      H2607   1.083       .  S
C2598      H2608   1.082       .  S
C2609      C2610   1.407       .  A
C2609      C2614   1.405       .  A
C2610      C2611   1.399       .  A
C2610      H2623   1.083       .  S
C2611      C2612   1.404       .  A
C2611      H2624   1.083       .  S
C2612      C2613   1.409       .  A
C2612      C2615   1.490       .  S
C2613      C2614   1.398       .  A
C2613      H2625   1.081       .  S
C2614      H2626   1.083       .  S
C2615      C2616   1.349       .  D
C2615      H2627   1.084       .  S
C2616      C2617   1.490       .  S
C2616      H2628   1.084       .  S
C2617      C2618   1.403       .  A
C2617      C2622   1.409       .  A
C2618      C2619   1.396       .  A
C2618      H2629   1.084       .  S
C2619      C2620   1.406       .  A
C2619      H2630   1.083       .  S
C2620      C2621   1.407       .  A
C2621      C2622   1.402       .  A
C2621      H2631   1.083       .  S
C2622      H2632   1.081       .  S
C2633      C2634   1.407       .  A
C2633      C2638   1.406       .  A
C2634      C2635   1.392       .  A
C2634      H2647   1.083       .  S
C2635      C2636   1.398       .  A
C2635      H2648   1.084       .  S
C2636      C2637   1.409       .  A
C2636      C2639   1.482       .  S
C2637      C2638   1.405       .  A
C2637      H2649   1.083       .  S
C2638      H2650   1.083       .  S
C2639      C2640   1.343       .  D
C2639      H2651   1.086       .  S
C2640      C2641   1.486       .  S
C2640      H2652   1.087       .  S
C2641      C2642   1.401       .  A
C2641      C2646   1.409       .  A
C2642      C2643   1.396       .  A
C2642      H2653   1.084       .  S
C2643      C2644   1.408       .  A
C2643      H2654   1.083       .  S
C2644      C2645   1.406       .  A
C2645      C2646   1.402       .  A
C2645      H2655   1.083       .  S
C2646      H2656   1.082       .  S
C2657      C2658   1.406       .  A
C2657      C2662   1.407       .  A
C2658      C2659   1.400       .  A
C2658      H2671   1.083       .  S
C2659      C2660   1.404       .  A
C2659      H2672   1.083       .  S
C2660      C2661   1.406       .  A
C2660      C2663   1.485       .  S
C2661      C2662   1.397       .  A
C2661      H2673   1.082       .  S
C2662      H2674   1.083       .  S
C2663      C2664   1.347       .  D
C2663      H2675   1.086       .  S
C2664      C2665   1.485       .  S
C2664      H2676   1.086       .  S
C2665      C2666   1.404       .  A
C2665      C2670   1.406       .  A
C2666      C2667   1.399       .  A
C2666      H2677   1.083       .  S
C2667      C2668   1.406       .  A
C2667      H2678   1.083       .  S
C2668      C2669   1.407       .  A
C2669      C2670   1.398       .  A
C2669      H2679   1.083       .  S
C2670      H2680   1.082       .  S
C2681      C2682   1.404       .  A
C2681      C2686   1.406       .  A
C2682      C2683   1.396       .  A
C2682      H2695   1.083       .  S
C2683      C2684   1.404       .  A
C2683      H2696   1.083       .  S
C2684      C2685   1.409       .  A
C2684      C2687   1.489       .  S
C2685      C2686   1.399       .  A
C2685      H2697   1.080       .  S
C2686      H2698   1.083       .  S
C2687      C2688   1.349       .  D
C2687      H2699   1.085       .  S
C2688      C2689   1.487       .  S
C2688      H2700   1.083       .  S
C2689      C2690   1.404       .  A
C2689      C2694   1.407       .  A
C2690      C2691   1.399       .  A
C2690      H2701   1.083       .  S
C2691      C2692   1.406       .  A
C2691      H2702   1.083       .  S
C2692      C2693   1.405       .  A
C2693      C2694   1.396       .  A
C2693      H2703   1.083       .  S
C2694      H2704   1.081       .  S
C2705      C2706   1.404       .  A
C2705      C2710   1.404       .  A
C2706      C2707   1.393       .  A
C2706      H2719   1.083       .  S
C2707      C2708   1.401       .  A
C2707      H2720   1.084       .  S
C2708      C2709   1.409       .  A
C2708      C2711   1.482       .  S
C2709      C2710   1.404       .  A
C2709      H2721   1.082       .  S
C2710      H2722   1.083       .  S
C2711      C2712   1.347       .  D
C2711      H2723   1.085       .  S
C2712      C2713   1.489   1_565  S
C2712      H2724   1.086       .  S
C2713      C2714   1.405       .  A
C2713      C2718   1.406       .  A
C2714      C2715   1.402       .  A
C2714      H2725   1.083       .  S
C2715      C2716   1.406       .  A
C2715      H2726   1.083       .  S
C2716      C2717   1.406       .  A
C2717      C2718   1.394       .  A
C2717      H2727   1.083       .  S
C2718      H2728   1.081       .  S
C2729      C2730   1.403       .  A
C2729      C2734   1.405       .  A
C2730      C2731   1.393       .  A
C2730      H2743   1.083       .  S
C2731      C2732   1.401       .  A
C2731      H2744   1.083       .  S
C2732      C2733   1.409       .  A
C2732      C2735   1.483       .  S
C2733      C2734   1.404       .  A
C2733      H2745   1.082       .  S
C2734      H2746   1.083       .  S
C2735      C2736   1.347       .  D
C2735      H2747   1.084       .  S
C2736      C2737   1.490       .  S
C2736      H2748   1.086       .  S
C2737      C2738   1.405       .  A
C2737      C2742   1.407       .  A
C2738      C2739   1.402       .  A
C2738      H2749   1.083       .  S
C2739      C2740   1.407       .  A
C2739      H2750   1.083       .  S
C2740      C2741   1.406       .  A
C2741      C2742   1.395       .  A
C2741      H2751   1.083       .  S
C2742      H2752   1.081       .  S
C2753      C2754   1.409       .  A
C2753      C2758   1.407       .  A
C2754      C2755   1.394       .  A
C2754      H2767   1.083       .  S
C2755      C2756   1.399       .  A
C2755      H2768   1.084       .  S
C2756      C2757   1.410       .  A
C2756      C2759   1.487       .  S
C2757      C2758   1.407       .  A
C2757      H2769   1.082       .  S
C2758      H2770   1.083       .  S
C2759      C2760   1.344       .  D
C2759      H2771   1.087       .  S
C2760      C2761   1.488       .  S
C2760      H2772   1.087       .  S
C2761      C2762   1.401       .  A
C2761      C2766   1.410       .  A
C2762      C2763   1.397       .  A
C2762      H2773   1.084       .  S
C2763      C2764   1.408       .  A
C2763      H2774   1.083       .  S
C2764      C2765   1.406       .  A
C2765      C2766   1.404       .  A
C2765      H2775   1.083       .  S
C2766      H2776   1.082       .  S
C2777      C2778   1.407       .  A
C2777      C2782   1.407       .  A
C2778      C2779   1.397       .  A
C2778      H2791   1.083       .  S
C2779      C2780   1.402       .  A
C2779      H2792   1.083       .  S
C2780      C2781   1.410       .  A
C2780      C2783   1.490       .  S
C2781      C2782   1.404       .  A
C2781      H2793   1.082       .  S
C2782      H2794   1.083       .  S
C2783      C2784   1.347       .  D
C2783      H2795   1.086       .  S
C2784      C2785   1.491       .  S
C2784      H2796   1.086       .  S
C2785      C2786   1.402       .  A
C2785      C2790   1.410       .  A
C2786      C2787   1.397       .  A
C2786      H2797   1.084       .  S
C2787      C2788   1.407       .  A
C2787      H2798   1.083       .  S
C2788      C2789   1.406       .  A
C2789      C2790   1.404       .  A
C2789      H2799   1.083       .  S
C2790      H2800   1.082       .  S
C2801      C2802   1.406       .  A
C2801      C2806   1.406       .  A
C2802      C2803   1.397       .  A
C2802      H2815   1.083       .  S
C2803      C2804   1.404       .  A
C2803      H2816   1.084       .  S
C2804      C2805   1.409       .  A
C2804      C2807   1.491       .  S
C2805      C2806   1.402       .  A
C2805      H2817   1.081       .  S
C2806      H2818   1.083       .  S
C2807      C2808   1.350   1_554  D
C2807      H2819   1.083   1_554  S
C2808      C2809   1.493       .  S
C2808      H2820   1.084       .  S
C2809      C2810   1.405       .  A
C2809      C2814   1.410       .  A
C2810      C2811   1.400       .  A
C2810      H2821   1.083       .  S
C2811      C2812   1.406       .  A
C2811      H2822   1.083       .  S
C2812      C2813   1.406       .  A
C2813      C2814   1.399       .  A
C2813      H2823   1.083       .  S
C2814      H2824   1.080       .  S
C2825      C2826   1.408       .  A
C2825      C2830   1.408       .  A
C2826      C2827   1.395       .  A
C2826      H2839   1.083       .  S
C2827      C2828   1.400       .  A
C2827      H2840   1.084       .  S
C2828      C2829   1.410       .  A
C2828      C2831   1.490       .  S
C2829      C2830   1.407       .  A
C2829      H2841   1.082       .  S
C2830      H2842   1.083       .  S
C2831      C2832   1.345       .  D
C2831      H2843   1.086       .  S
C2832      C2833   1.490       .  S
C2832      H2844   1.086       .  S
C2833      C2834   1.401       .  A
C2833      C2838   1.410       .  A
C2834      C2835   1.397       .  A
C2834      H2845   1.083       .  S
C2835      C2836   1.408       .  A
C2835      H2846   1.083       .  S
C2836      C2837   1.407       .  A
C2837      C2838   1.406       .  A
C2837      H2847   1.083       .  S
C2838      H2848   1.082       .  S
C2849      C2850   1.408       .  A
C2849      C2854   1.406       .  A
C2850      C2851   1.397       .  A
C2850      H2863   1.083       .  S
C2851      C2852   1.401       .  A
C2851      H2864   1.084       .  S
C2852      C2853   1.410       .  A
C2852      C2855   1.490       .  S
C2853      C2854   1.404       .  A
C2853      H2865   1.082       .  S
C2854      H2866   1.083       .  S
C2855      C2856   1.346       .  D
C2855      H2867   1.086       .  S
C2856      C2857   1.489       .  S
C2856      H2868   1.086       .  S
C2857      C2858   1.401       .  A
C2857      C2862   1.410       .  A
C2858      C2859   1.396       .  A
C2858      H2869   1.084       .  S
C2859      C2860   1.407       .  A
C2859      H2870   1.083       .  S
C2860      C2861   1.407       .  A
C2861      C2862   1.405       .  A
C2861      H2871   1.083       .  S
C2862      H2872   1.082       .  S
C2873      C2874   1.405       .  A
C2873      C2878   1.405       .  A
C2874      C2875   1.397       .  A
C2874      H2887   1.083       .  S
C2875      C2876   1.402       .  A
C2875      H2888   1.083       .  S
C2876      C2877   1.408       .  A
C2876      C2879   1.486       .  S
C2877      C2878   1.402       .  A
C2877      H2889   1.082       .  S
C2878      H2890   1.083       .  S
C2879      C2880   1.348       .  D
C2879      H2891   1.085       .  S
C2880      C2881   1.490       .  S
C2880      H2892   1.086       .  S
C2881      C2882   1.405       .  A
C2881      C2886   1.407       .  A
C2882      C2883   1.402       .  A
C2882      H2893   1.083       .  S
C2883      C2884   1.406       .  A
C2883      H2894   1.083       .  S
C2884      C2885   1.407       .  A
C2885      C2886   1.397       .  A
C2885      H2895   1.083       .  S
C2886      H2896   1.082       .  S
C2897      C2898   1.406       .  A
C2897      C2902   1.406       .  A
C2898      C2899   1.397       .  A
C2898      H2911   1.083       .  S
C2899      C2900   1.404       .  A
C2899      H2912   1.084       .  S
C2900      C2901   1.410       .  A
C2900      C2903   1.492       .  S
C2901      C2902   1.401       .  A
C2901      H2913   1.080       .  S
C2902      H2914   1.083       .  S
C2903      C2904   1.349   1_556  D
C2903      H2915   1.085       .  S
C2904      C2905   1.490       .  S
C2904      H2916   1.084   1_554  S
C2905      C2906   1.403       .  A
C2905      C2910   1.409       .  A
C2906      C2907   1.398       .  A
C2906      H2917   1.084       .  S
C2907      C2908   1.407       .  A
C2907      H2918   1.083       .  S
C2908      C2909   1.406       .  A
C2909      C2910   1.400       .  A
C2909      H2919   1.083       .  S
C2910      H2920   1.081       .  S
C2921      C2922   1.405       .  A
C2921      C2926   1.404       .  A
C2922      C2923   1.393       .  A
C2922      H2935   1.083       .  S
C2923      C2924   1.400       .  A
C2923      H2936   1.084       .  S
C2924      C2925   1.410       .  A
C2924      C2927   1.483       .  S
C2925      C2926   1.403       .  A
C2925      H2937   1.082       .  S
C2926      H2938   1.083       .  S
C2927      C2928   1.346       .  D
C2927      H2939   1.086       .  S
C2928      C2929   1.487       .  S
C2928      H2940   1.087       .  S
C2929      C2930   1.403       .  A
C2929      C2934   1.408       .  A
C2930      C2931   1.399       .  A
C2930      H2941   1.084       .  S
C2931      C2932   1.407       .  A
C2931      H2942   1.083       .  S
C2932      C2933   1.406       .  A
C2933      C2934   1.398       .  A
C2933      H2943   1.083       .  S
C2934      H2944   1.082       .  S
C2945      C2946   1.406       .  A
C2945      C2950   1.407       .  A
C2946      C2947   1.404       .  A
C2946      H2959   1.083       .  S
C2947      C2948   1.407       .  A
C2947      H2960   1.083       .  S
C2948      C2949   1.406       .  A
C2948      C2951   1.490       .  S
C2949      C2950   1.393       .  A
C2949      H2961   1.081       .  S
C2950      H2962   1.083       .  S
C2951      C2952   1.349       .  D
C2951      H2963   1.085       .  S
C2952      C2953   1.485       .  S
C2952      H2964   1.085       .  S
C2953      C2954   1.402   1_545  A
C2953      C2958   1.408   1_545  A
C2954      C2955   1.395       .  A
C2954      H2965   1.083       .  S
C2955      C2956   1.404       .  A
C2955      H2966   1.083       .  S
C2956      C2957   1.407       .  A
C2957      C2958   1.403       .  A
C2957      H2967   1.083       .  S
C2958      H2968   1.082       .  S
C2969      C2970   1.408       .  A
C2969      C2974   1.406       .  A
C2970      C2971   1.394       .  A
C2970      H2983   1.083       .  S
C2971      C2972   1.399       .  A
C2971      H2984   1.084       .  S
C2972      C2973   1.409       .  A
C2972      C2975   1.486       .  S
C2973      C2974   1.405       .  A
C2973      H2985   1.082       .  S
C2974      H2986   1.083       .  S
C2975      C2976   1.343       .  D
C2975      H2987   1.087       .  S
C2976      C2977   1.484       .  S
C2976      H2988   1.086       .  S
C2977      C2978   1.399       .  A
C2977      C2982   1.410       .  A
C2978      C2979   1.394       .  A
C2978      H2989   1.084       .  S
C2979      C2980   1.408       .  A
C2979      H2990   1.083       .  S
C2980      C2981   1.405       .  A
C2981      C2982   1.405       .  A
C2981      H2991   1.083       .  S
C2982      H2992   1.083       .  S
C2993      C2994   1.406       .  A
C2993      C2998   1.407       .  A
C2994      C2995   1.401       .  A
C2994      H3007   1.083       .  S
C2995      C2996   1.404       .  A
C2995      H3008   1.083       .  S
C2996      C2997   1.405       .  A
C2996      C2999   1.485       .  S
C2997      C2998   1.397       .  A
C2997      H3009   1.082       .  S
C2998      H3010   1.083       .  S
C2999      C3000   1.348       .  D
C2999      H3011   1.086       .  S
C3000      C3001   1.485       .  S
C3000      H3012   1.086       .  S
C3001      C3002   1.405       .  A
C3001      C3006   1.405       .  A
C3002      C3003   1.401       .  A
C3002      H3013   1.083       .  S
C3003      C3004   1.406       .  A
C3003      H3014   1.083       .  S
C3004      C3005   1.407       .  A
C3005      C3006   1.397       .  A
C3005      H3015   1.083       .  S
C3006      H3016   1.082       .  S
C3017      C3018   1.406       .  A
C3017      C3022   1.407       .  A
C3018      C3019   1.397       .  A
C3018      H3031   1.083       .  S
C3019      C3020   1.401       .  A
C3019      H3032   1.083       .  S
C3020      C3021   1.407       .  A
C3020      C3023   1.485       .  S
C3021      C3022   1.403       .  A
C3021      H3033   1.083       .  S
C3022      H3034   1.083       .  S
C3023      C3024   1.347       .  D
C3023      H3035   1.086       .  S
C3024      C3025   1.488       .  S
C3024      H3036   1.086       .  S
C3025      C3026   1.404       .  A
C3025      C3030   1.406       .  A
C3026      C3027   1.401       .  A
C3026      H3037   1.083       .  S
C3027      C3028   1.406       .  A
C3027      H3038   1.083       .  S
C3028      C3029   1.407       .  A
C3029      C3030   1.397       .  A
C3029      H3039   1.083       .  S
C3030      H3040   1.082       .  S
