geometry optimzed in LAMMPS
_audit_creation_date              2020-12-01 
_audit_creation_method            'lammps2cif' 
_symmetry_space_group_name_H-M    'P1' 
_symmetry_Int_Tables_number       1 
_symmetry_cell_setting            triclinic 
loop_ 
_symmetry_equiv_pos_as_xyz 
  x,y,z 
_cell_length_a                    26.03656359 
_cell_length_b                    28.992077551730084 
_cell_length_c                    48.05135243112637 
_cell_angle_alpha                 90.03842295861294 
_cell_angle_beta                  90.1105288631943 
_cell_angle_gamma                 89.7935797478136 
loop_ 
_atom_site_label 
_atom_site_type_symbol 
_atom_site_fract_x 
_atom_site_fract_y 
_atom_site_fract_z 
_atom_site_charge 
O1          O  0.13736954  0.12336000  0.87212100    -0.86000
O2          O  0.11082084  0.12521657  0.92636678    -0.83000
C3          C  0.09845058  0.13817755  0.95032429     0.97500
O4          O  0.09880912  0.18077951  0.95635135    -0.83100
O5          O  0.19884650  0.20792774  0.94678651    -0.85700
C6          C  0.23969519  0.21979132  0.93485566     1.02000
O7          O  0.23872924  0.23268361  0.90953583    -0.78500
O8          O  0.21170498  0.15440091  0.88148780    -0.78600
C9          C  0.18533814  0.11933770  0.87600769     1.02000
O10         O  0.06550485  0.19856111  0.86240494    -0.86000
O11         O  0.03198103  0.19315717  0.91649847    -0.83000
C12         C  0.02629236  0.23365455  0.92617048     0.97500
O13         O  0.06401412  0.26082487  0.92692993    -0.83100
O14         O  0.16455864  0.29311762  0.92191157    -0.85700
C15         C  0.16988987  0.30905462  0.89743908     1.02000
O16         O  0.16443615  0.28293722  0.87669241    -0.78500
O17         O  0.14243337  0.20611803  0.84450996    -0.78600
C18         C  0.09366577  0.20657124  0.84173549     1.01900
Cr19       Cr  0.08957713  0.16328502  0.89470413     1.93700
Cr20       Cr  0.13205108  0.23384766  0.93558435     1.93200
Cr21       Cr  0.18559489  0.21801314  0.87950623     1.39100
O22         O  0.13541756  0.20556739  0.90307870    -1.23700
O23         O  0.80690896  0.85552997  0.11611751    -0.86000
O24         O  0.77912776  0.78091203  0.08406700    -0.83000
C25         C  0.77731204  0.79751175  0.05955045     0.97500
O26         O  0.81721549  0.81359935  0.04869441    -0.83100
O27         O  0.91590989  0.84302431  0.04004755    -0.85700
C28         C  0.91579587  0.88420570  0.04916698     1.02000
O29         O  0.90709285  0.89177118  0.07435768    -0.78500
O30         O  0.88157381  0.88365011  0.12800656    -0.78600
C31         C  0.83369265  0.88914648  0.12402297     1.02000
O32         O  0.87600995  0.79878339  0.14977478    -0.86000
O33         O  0.85514194  0.72714849  0.11366208    -0.83000
C34         C  0.84877565  0.70440048  0.09161615     0.97500
O35         O  0.85208101  0.72422689  0.06804193    -0.83100
O36         O  0.95154823  0.75726837  0.06401078    -0.85700
C37         C  0.99001451  0.78323563  0.06585403     1.02000
O38         O  0.98587097  0.82207560  0.07798398    -0.78500
O39         O  0.95300811  0.80646733  0.13205841    -0.78600
C40         C  0.92470583  0.79772191  0.15256496     1.01900
Cr41       Cr  0.83270059  0.79181165  0.11456501     1.93700
Cr42       Cr  0.88404982  0.78587655  0.05758629     1.93200
Cr43       Cr  0.92895478  0.84785664  0.10254135     1.39100
O44         O  0.88222318  0.80808435  0.09165914    -1.23700
O45         O  0.30649829  0.65648686  0.87829772    -0.86000
O46         O  0.28029271  0.73304451  0.90812401    -0.83000
C47         C  0.27852289  0.71718327  0.93274550     0.97500
O48         O  0.31851018  0.70116702  0.94385088    -0.83100
O49         O  0.41781444  0.67151575  0.95317783    -0.85700
C50         C  0.41776638  0.62981157  0.94498979     1.02000
O51         O  0.40963990  0.62083722  0.91988510    -0.78500
O52         O  0.38014269  0.62580278  0.86665995    -0.78600
C53         C  0.33263524  0.62147011  0.87203761     1.02000
O54         O  0.37407930  0.71003765  0.84226205    -0.86000
O55         O  0.35549154  0.78411104  0.87723934    -0.83000
C56         C  0.35040480  0.80804985  0.89897028     0.97500
O57         O  0.35395474  0.78918041  0.92284219    -0.83100
O58         O  0.45296196  0.75578388  0.92745387    -0.85700
C59         C  0.49174934  0.73016528  0.92479012     1.02000
O60         O  0.48732586  0.69078184  0.91329548    -0.78500
O61         O  0.45179186  0.70211019  0.85911950    -0.78600
C62         C  0.42255133  0.71088848  0.83887892     1.01900
Cr63       Cr  0.33274898  0.71965898  0.87780183     1.93700
Cr64       Cr  0.38556100  0.72781374  0.93441883     1.93200
Cr65       Cr  0.42930719  0.66311619  0.89025948     1.39100
O66         O  0.38304419  0.70401084  0.90070737    -1.23700
O67         O  0.63672086  0.38936499  0.12352028    -0.86000
O68         O  0.60632671  0.38512477  0.06973020    -0.83000
C69         C  0.59298636  0.37108000  0.04611118     0.97500
O70         O  0.59248055  0.32802993  0.04086270    -0.83100
O71         O  0.69226363  0.29944011  0.04764317    -0.85700
C72         C  0.73477436  0.29044189  0.05882863     1.02000
O73         O  0.73716638  0.28034982  0.08458965    -0.78500
O74         O  0.71052941  0.35982103  0.11153673    -0.78600
C75         C  0.68394733  0.39438592  0.11799745     1.02000
O76         O  0.56781276  0.31326291  0.13521832    -0.86000
O77         O  0.52890147  0.31807537  0.08173839    -0.83000
C78         C  0.52315875  0.27715799  0.07285834     0.97500
O79         O  0.56065609  0.24963956  0.07359618    -0.83100
O80         O  0.66135764  0.21630454  0.07650076    -0.85700
C81         C  0.67129948  0.20303546  0.10122526     1.02000
O82         O  0.66892774  0.23113169  0.12112058    -0.78500
O83         O  0.64648952  0.30879047  0.15158665    -0.78600
C84         C  0.59800551  0.30609012  0.15525068     1.01900
Cr85       Cr  0.58807661  0.34823253  0.10225396     1.93700
Cr86       Cr  0.62729550  0.27520224  0.06197232     1.93200
Cr87       Cr  0.68695673  0.29598141  0.11578664     1.39100
O88         O  0.63405278  0.30598164  0.09344175    -1.23700
O89         O  0.87911221  0.12445049  0.62201955    -0.86000
O90         O  0.91209836  0.12993086  0.56873698    -0.83000
C91         C  0.92547082  0.14457970  0.54526104     0.97500
O92         O  0.92386487  0.18758366  0.54005766    -0.83100
O93         O  0.82293192  0.21416915  0.54618330    -0.85700
C94         C  0.77979193  0.22270173  0.55674192     1.02000
O95         O  0.77629290  0.23175037  0.58261442    -0.78500
O96         O  0.80470484  0.15257856  0.60949497    -0.78600
C97         C  0.83215899  0.11857808  0.61604451     1.02000
O98         O  0.94507080  0.20238301  0.63524959    -0.86000
O99         O  0.98602629  0.19880296  0.58222921    -0.83000
C100        C  0.99086322  0.23958992  0.57312472     0.97500
O101        O  0.95266228  0.26629054  0.57322321    -0.83100
O102        O  0.85164237  0.29707525  0.57546406    -0.85700
C103        C  0.84197434  0.31028818  0.60017144     1.02000
O104        O  0.84292521  0.28192274  0.61995703    -0.78500
O105        O  0.86562227  0.20424177  0.65040669    -0.78600
C106        C  0.91375054  0.20810287  0.65488351     1.01900
Cr107      Cr  0.92728391  0.16709528  0.60175010     1.93700
Cr108      Cr  0.88703887  0.23925283  0.56107191     1.93200
Cr109      Cr  0.82630929  0.21681195  0.61419248     1.39100
O110        O  0.88021788  0.20810675  0.59239337    -1.23700
O111        O  0.21420935  0.85948270  0.37525265    -0.86000
O112        O  0.24374744  0.78513268  0.40714341    -0.83000
C113        C  0.24737863  0.80214170  0.43142957     0.97500
O114        O  0.20864628  0.81974840  0.44282711    -0.83100
O115        O  0.11025192  0.84926720  0.45378123    -0.85700
C116        C  0.10878664  0.89038427  0.44457294     1.02000
O117        O  0.11430325  0.89765371  0.41904988    -0.78500
O118        O  0.13806004  0.88712311  0.36503879    -0.78600
C119        C  0.18604964  0.89283231  0.36812163     1.02000
O120        O  0.14384015  0.80257614  0.34349438    -0.86000
O121        O  0.16608197  0.73150285  0.37978327    -0.83000
C122        C  0.17377844  0.70917906  0.40188600     0.97500
O123        O  0.17284562  0.72971487  0.42532181    -0.83100
O124        O  0.07416171  0.76257771  0.43120644    -0.85700
C125        C  0.03485071  0.78763612  0.42923208     1.02000
O126        O  0.03741559  0.82639081  0.41693886    -0.78500
O127        O  0.06764008  0.81003516  0.36225717    -0.78600
C128        C  0.09518452  0.80102679  0.34140922     1.01900
Cr129      Cr  0.18861682  0.79597456  0.37785961     1.93700
Cr130      Cr  0.14144884  0.79175799  0.43590794     1.93200
Cr131      Cr  0.09240673  0.85224249  0.39137210     1.39100
O132        O  0.14053822  0.81307422  0.40166080    -1.23700
O133        O  0.71599736  0.66144563  0.61783396    -0.86000
O134        O  0.74282311  0.73369316  0.58475288    -0.83000
C135        C  0.74782760  0.71470434  0.56102375     0.97500
O136        O  0.70967589  0.69626566  0.54949071    -0.83100
O137        O  0.61167074  0.66419957  0.53887144    -0.85700
C138        C  0.61085302  0.62355775  0.54876833     1.02000
O139        O  0.61855691  0.61747490  0.57424736    -0.78500
O140        O  0.64185841  0.63088727  0.62821107    -0.78600
C141        C  0.69003070  0.62691296  0.62485115     1.02000
O142        O  0.64219352  0.71789173  0.64842883    -0.86000
O143        O  0.66187086  0.78703302  0.61040557    -0.83000
C144        C  0.67032805  0.80806836  0.58798025     0.97500
O145        O  0.67061217  0.78612953  0.56502745    -0.83100
O146        O  0.57292924  0.75056812  0.55991846    -0.85700
C147        C  0.53442501  0.72489748  0.56264716     1.02000
O148        O  0.53847334  0.68651959  0.57526840    -0.78500
O149        O  0.56695753  0.70566833  0.62948585    -0.78600
C150        C  0.59340494  0.71739374  0.65024168     1.01900
Cr151      Cr  0.68741199  0.72361089  0.61401943     1.93700
Cr152      Cr  0.64122822  0.72296533  0.55571251     1.93200
Cr153      Cr  0.59446971  0.66319319  0.60121249     1.39100
O154        O  0.64070861  0.70349328  0.59037344    -1.23700
O155        O  0.37787838  0.38805465  0.37029100    -0.86000
O156        O  0.40792808  0.38723181  0.42388724    -0.83000
C157        C  0.41887871  0.37464553  0.44813478     0.97500
O158        O  0.41445303  0.33251443  0.45492308    -0.83100
O159        O  0.31268069  0.30990204  0.44559674    -0.85700
C160        C  0.27146345  0.29724030  0.43436879     1.02000
O161        O  0.27148686  0.28361452  0.40917338    -0.78500
O162        O  0.30178952  0.36124719  0.38074546    -0.78600
C163        C  0.33032746  0.39469223  0.37471261     1.02000
O164        O  0.44413752  0.30796160  0.36080078    -0.86000
O165        O  0.48068102  0.31391686  0.41465105    -0.83000
C166        C  0.48284333  0.27400389  0.42556469     0.97500
O167        O  0.44307626  0.24951903  0.42661863    -0.83100
O168        O  0.34201060  0.22202300  0.42138542    -0.85700
C169        C  0.33837718  0.20548533  0.39690125     1.02000
O170        O  0.34353811  0.23127309  0.37603029    -0.78500
O171        O  0.36641220  0.30694434  0.34337408    -0.78600
C172        C  0.41478443  0.30259755  0.34025336     1.01900
Cr173      Cr  0.42440465  0.34631022  0.39273484     1.93700
Cr174      Cr  0.37753625  0.28033996  0.43480743     1.93200
Cr175      Cr  0.32439446  0.29665367  0.37877511     1.43100
O176        O  0.37570314  0.30748894  0.40203543    -1.23700
C177        C  0.46567895  0.48874653  0.47531455    -0.11500
C178        C  0.50763812  0.47534128  0.49196555     0.05700
C179        C  0.51590906  0.42789173  0.49668531    -0.10200
C180        C  0.48412372  0.39483272  0.48425281    -0.11900
C181        C  0.44385558  0.40851997  0.46660268    -0.01700
C182        C  0.43453033  0.45577931  0.46260048    -0.10800
C183        C  0.54162250  0.51097195  0.50468663     0.05700
H184        H  0.54804813  0.41613702  0.50914297     0.07600
H185        H  0.49302107  0.35859247  0.48705545     0.11100
H186        H  0.40396796  0.46724646  0.44888885     0.11400
H187        H  0.45700052  0.52483044  0.47185636     0.07700
C188        C  0.55146180  0.55293542  0.49086960    -0.11500
C189        C  0.57724861  0.58888362  0.50439933    -0.10800
C190        C  0.59437212  0.58340131  0.53189194    -0.01700
C191        C  0.58840897  0.54013853  0.54480387    -0.11900
C192        C  0.56207792  0.50454218  0.53147180    -0.10300
H193        H  0.53783390  0.55859837  0.46985290     0.07700
H194        H  0.58156376  0.62160709  0.49381884     0.11400
H195        H  0.60136355  0.53453199  0.56597375     0.11100
H196        H  0.55534432  0.47295568  0.54286567     0.07600
C197        C  0.91852149  0.79573429  0.47572117    -0.11500
C198        C  0.91309303  0.74971481  0.48449837     0.05700
C199        C  0.94422589  0.71563718  0.47223841    -0.10200
C200        C  0.98163547  0.72765161  0.45272776    -0.11900
C201        C  0.98841143  0.77390923  0.44480319    -0.01700
C202        C  0.95562045  0.80769166  0.45597924    -0.10800
C203        C  0.87502921  0.73741716  0.50630977     0.05700
H204        H  0.94106494  0.67992291  0.47854460     0.07600
H205        H  0.00665716  0.70092121  0.44461052     0.11100
H206        H  0.96045594  0.84367898  0.45060167     0.11400
H207        H  0.89441666  0.82265016  0.48438390     0.07700
C208        C  0.86756222  0.76605004  0.52964585    -0.11500
C209        C  0.82852344  0.75670474  0.54882295    -0.10800
C210        C  0.79592645  0.71878034  0.54489011    -0.01700
C211        C  0.80522283  0.68876304  0.52244431    -0.11900
C212        C  0.84450181  0.69783565  0.50345560    -0.10300
H213        H  0.89117845  0.79629368  0.53271511     0.07700
H214        H  0.82197933  0.78063606  0.56578712     0.11400
H215        H  0.78064181  0.65927056  0.51889634     0.11100
H216        H  0.84923317  0.67509281  0.48574929     0.07600
C217        C  0.36278022  0.74567086  0.46452805    -0.11500
C218        C  0.37020737  0.77381034  0.48804941     0.05700
C219        C  0.34054064  0.81409871  0.49088598    -0.10200
C220        C  0.30279678  0.82497708  0.47130478    -0.11900
C221        C  0.29413552  0.79601684  0.44834907    -0.01700
C222        C  0.32520787  0.75680178  0.44476606    -0.10800
C223        C  0.40880602  0.76142718  0.50956137     0.05700
H224        H  0.34515127  0.83633608  0.50882314     0.07600
H225        H  0.27898854  0.85518902  0.47467061     0.11100
H226        H  0.31865273  0.73347356  0.42751200     0.11400
H227        H  0.38566651  0.71479980  0.46156758     0.07700
C228        C  0.41529251  0.71542248  0.51825294    -0.11500
C229        C  0.45387757  0.70373701  0.53734302    -0.10800
C230        C  0.48682925  0.73783380  0.54785957    -0.01700
C231        C  0.47881350  0.78399602  0.54009724    -0.11900
C232        C  0.44018061  0.79567981  0.52122714    -0.10300
H233        H  0.39108320  0.68840288  0.50994110     0.07700
H234        H  0.45969743  0.66779707  0.54267878     0.11400
H235        H  0.50388859  0.81092324  0.54775872     0.11100
H236        H  0.43635772  0.83134533  0.51485451     0.07600
C237        C  0.27302200  0.09049194  0.40648835    -0.11500
C238        C  0.28118170  0.06966377  0.38045454     0.05700
C239        C  0.31201618  0.09200415  0.36077808    -0.10200
C240        C  0.33232202  0.13555975  0.36655999    -0.11900
C241        C  0.32307165  0.15703192  0.39235315    -0.01700
C242        C  0.29415280  0.13363447  0.41249101    -0.10800
C243        C  0.25605298  0.02542480  0.37368008     0.05700
H244        H  0.31874407  0.07652138  0.34058353     0.07600
H245        H  0.35436026  0.15292649  0.35062317     0.11100
H246        H  0.28594596  0.14956583  0.43239306     0.11400
H247        H  0.24967021  0.07356500  0.42204823     0.07700
C248        C  0.28497383  0.98750173  0.36438825    -0.11500
C249        C  0.26161020  0.94450047  0.36083471    -0.10800
C250        C  0.20874814  0.93917875  0.36580940    -0.01700
C251        C  0.17937852  0.97789738  0.37332007    -0.11900
C252        C  0.20293611  0.02051087  0.37754613    -0.10300
H253        H  0.32599619  0.99063940  0.36122504     0.07700
H254        H  0.28513293  0.91506417  0.35520931     0.11400
H255        H  0.13873961  0.97462094  0.37764713     0.11100
H256        H  0.17987664  0.04949137  0.38444593     0.07600
C257        C  0.23180474  0.49069261  0.37430435    -0.11500
C258        C  0.26084321  0.52832753  0.38376684     0.05700
C259        C  0.31405459  0.52257489  0.38764313    -0.10200
C260        C  0.33746780  0.47971912  0.38282204    -0.11900
C261        C  0.30795260  0.44166123  0.37446494    -0.01700
C262        C  0.25500994  0.44775403  0.36994816    -0.10800
C263        C  0.23546734  0.57325247  0.38970872     0.05700
H264        H  0.33745782  0.55115719  0.39462358     0.07600
H265        H  0.37816753  0.47579324  0.38693545     0.11100
H266        H  0.23124966  0.41890425  0.36376057     0.11400
H267        H  0.19074001  0.49404454  0.37124333     0.07700
C268        C  0.19943910  0.59164178  0.37092965    -0.11500
C269        C  0.17724537  0.63485864  0.37572236    -0.10800
C270        C  0.18999737  0.66040304  0.39960374    -0.01700
C271        C  0.22435867  0.64124775  0.41902965    -0.11900
C272        C  0.24719182  0.59819984  0.41401946    -0.10300
H273        H  0.18980039  0.57330394  0.35199485     0.07700
H274        H  0.15116604  0.64895236  0.36030514     0.11400
H275        H  0.23548306  0.66049822  0.43739517     0.11100
H276        H  0.27436188  0.58455901  0.42901690     0.07600
C277        C  0.69817768  0.92538407  0.61793398    -0.11500
C278        C  0.73477723  0.94238685  0.59919683     0.05700
C279        C  0.74583139  0.91695744  0.57499464    -0.10200
C280        C  0.72170304  0.87457399  0.57009162    -0.11900
C281        C  0.68683094  0.85667830  0.58956431    -0.01700
C282        C  0.67467160  0.88292476  0.61324879    -0.10800
C283        C  0.76086746  0.98670391  0.60506386     0.05700
H284        H  0.77347302  0.92967457  0.56006447     0.07600
H285        H  0.73237663  0.85472132  0.55187625     0.11100
H286        H  0.64825396  0.86980745  0.62870276     0.11400
H287        H  0.68905090  0.94425624  0.63675995     0.07700
C288        C  0.73184799  0.02522395  0.61326909    -0.11500
C289        C  0.75558883  0.06751471  0.61815163    -0.10800
C290        C  0.80901962  0.07213612  0.61537536    -0.01700
C291        C  0.83847460  0.03324213  0.60812021    -0.11900
C292        C  0.81450066  0.99090379  0.60277344    -0.10300
H293        H  0.69048411  0.02294771  0.61509171     0.07700
H294        H  0.73190644  0.09701288  0.62348033     0.11400
H295        H  0.87961666  0.03608311  0.60537410     0.11100
H296        H  0.83775251  0.96150931  0.59674121     0.07600
C297        C  0.77876449  0.41218132  0.63570277    -0.11500
C298        C  0.78513579  0.44742640  0.61605453     0.05700
C299        C  0.81280916  0.43790389  0.59154392    -0.10200
C300        C  0.83241219  0.39363421  0.58647295    -0.11900
C301        C  0.82531400  0.35824236  0.60599114    -0.01700
C302        C  0.79884811  0.36822371  0.63081571    -0.10800
C303        C  0.76199904  0.49363390  0.62083895     0.05700
H304        H  0.81798738  0.46435298  0.57590870     0.07600
H305        H  0.85252084  0.38694934  0.56717141     0.11100
H306        H  0.79239933  0.34165813  0.64624119     0.11400
H307        H  0.75816762  0.41861192  0.65488743     0.07700
C308        C  0.71169732  0.49807813  0.63124784    -0.11500
C309        C  0.68878807  0.54160930  0.63402545    -0.10800
C310        C  0.71596164  0.58151601  0.62671423    -0.01700
C311        C  0.76696765  0.57703032  0.61735977    -0.11900
C312        C  0.78958504  0.53363404  0.61433788    -0.10300
H313        H  0.68935286  0.46777239  0.63622353     0.07700
H314        H  0.64931022  0.54389722  0.64096375     0.11400
H315        H  0.78893676  0.60701789  0.61127749     0.11100
H316        H  0.82857493  0.53133596  0.60662999     0.07600
C317        C  0.02463222  0.08943011  0.49869571    -0.11500
C318        C  0.01208041  0.04229327  0.50134984     0.05700
C319        C  0.96621829  0.03076941  0.51512013    -0.10200
C320        C  0.93591787  0.06469980  0.52757329    -0.11900
C321        C  0.94976485  0.11132246  0.52606077    -0.01700
C322        C  0.99348487  0.12361978  0.51073454    -0.10800
C323        C  0.04547900  0.00498064  0.48955098     0.05700
H324        H  0.95375808  0.99531058  0.51668258     0.07600
H325        H  0.90243799  0.05428403  0.53933212     0.11100
H326        H  0.00552255  0.15930203  0.50969486     0.11400
H327        H  0.05955869  0.09997722  0.48837440     0.07700
C328        C  0.07365698  0.01215122  0.46501513    -0.11500
C329        C  0.09822743  0.97528556  0.45175383    -0.10800
C330        C  0.09481602  0.93018022  0.46246273    -0.01700
C331        C  0.07073462  0.92358954  0.48820118    -0.11900
C332        C  0.04675229  0.96064478  0.50171333    -0.10300
H333        H  0.07416930  0.04552250  0.45496401     0.07700
H334        H  0.11722653  0.98170154  0.43210618     0.11400
H335        H  0.06783058  0.88940321  0.49711679     0.11100
H336        H  0.02757698  0.95400787  0.52125338     0.07600
C337        C  0.61478668  0.27678392  0.45887773    -0.11500
C338        C  0.61018093  0.24238592  0.47929880     0.05700
C339        C  0.56565754  0.21539659  0.47995702    -0.10200
C340        C  0.52582586  0.22342454  0.46093649    -0.11900
C341        C  0.52926180  0.25930551  0.44124599    -0.01700
C342        C  0.57453222  0.28550028  0.44021719    -0.10800
C343        C  0.65212972  0.23467824  0.49966892     0.05700
H344        H  0.56158629  0.18837487  0.49533934     0.07600
H345        H  0.49127840  0.20291489  0.46257429     0.11100
H346        H  0.57817722  0.31369478  0.42559420     0.11400
H347        H  0.64895745  0.29793321  0.45798671     0.07700
C348        C  0.70159018  0.22442899  0.49012855    -0.11500
C349        C  0.74212384  0.21907422  0.50888590    -0.10800
C350        C  0.73455571  0.22462394  0.53774907    -0.01700
C351        C  0.68467359  0.23428893  0.54739708    -0.11900
C352        C  0.64367585  0.23888346  0.52848251    -0.10300
H353        H  0.70889303  0.22077083  0.46805026     0.07700
H354        H  0.77987396  0.21158064  0.50056715     0.11400
H355        H  0.67752969  0.23892359  0.56941094     0.11100
H356        H  0.60566548  0.24698582  0.53624636     0.07600
C357        C  0.07945109  0.30574255  0.52546060    -0.11500
C358        C  0.11158743  0.27028678  0.51561261     0.05700
C359        C  0.10776755  0.22624430  0.52752866    -0.10200
C360        C  0.07139685  0.21742019  0.54821789    -0.11900
C361        C  0.03729623  0.25223481  0.55706846    -0.01700
C362        C  0.04241789  0.29674418  0.54581932    -0.10800
C363        C  0.14925129  0.27931974  0.49311312     0.05700
H364        H  0.13257681  0.19847271  0.52058795     0.07600
H365        H  0.06809083  0.18257703  0.55610393     0.11100
H366        H  0.01634230  0.32415058  0.55186957     0.11400
H367        H  0.08167803  0.34001669  0.51661447     0.07700
C368        C  0.15366933  0.24943901  0.47012178    -0.11500
C369        C  0.19107605  0.25709462  0.44965707    -0.10800
C370        C  0.22527275  0.29424895  0.45216996    -0.01700
C371        C  0.21989672  0.32461351  0.47481219    -0.11900
C372        C  0.18201307  0.31750605  0.49489338    -0.10300
H373        H  0.12859018  0.21986906  0.46819948     0.07700
H374        H  0.19504914  0.23266133  0.43273040     0.11400
H375        H  0.24614123  0.35321535  0.47742164     0.11100
H376        H  0.17962953  0.34086784  0.51244224     0.07600
C377        C  0.51596617  0.27487358  0.28604249    -0.11500
C378        C  0.49230190  0.28890115  0.26116239     0.05700
C379        C  0.44059493  0.30371090  0.26220032    -0.10200
C380        C  0.41405496  0.30611301  0.28762927    -0.11900
C381        C  0.43876515  0.29400685  0.31260428    -0.01700
C382        C  0.48962094  0.27742667  0.31134428    -0.10800
C383        C  0.52180913  0.28928363  0.23444406     0.05700
H384        H  0.42116506  0.31512287  0.24347459     0.07600
H385        H  0.37510260  0.31930419  0.28788797     0.11100
H386        H  0.50965720  0.26728344  0.33016215     0.11400
H387        H  0.55516237  0.26230642  0.28601830     0.07700
C388        C  0.57367538  0.30337588  0.23352062    -0.11500
C389        C  0.59989854  0.30689614  0.20801904    -0.10800
C390        C  0.57465071  0.29661642  0.18292148    -0.01700
C391        C  0.52372212  0.28052643  0.18407925    -0.11900
C392        C  0.49774273  0.27688563  0.20939436    -0.10300
H393        H  0.59343643  0.31341833  0.25241151     0.07700
H394        H  0.63898286  0.31951265  0.20784121     0.11400
H395        H  0.50331310  0.27158723  0.16517045     0.11100
H396        H  0.45845665  0.26479556  0.20929554     0.07600
C397        C  0.48947632  0.72038189  0.70569987    -0.11500
C398        C  0.51677555  0.73391198  0.72962061     0.05700
C399        C  0.56882523  0.74638922  0.72648676    -0.10200
C400        C  0.59354559  0.74262651  0.70062488    -0.11900
C401        C  0.56670541  0.72691950  0.67709465    -0.01700
C402        C  0.51397880  0.71719026  0.67984588    -0.10800
C403        C  0.49230483  0.73145130  0.75785973     0.05700
H404        H  0.59093697  0.75824872  0.74417631     0.07600
H405        H  0.63394621  0.75101013  0.69920531     0.11100
H406        H  0.49189302  0.70511192  0.66218208     0.11400
H407        H  0.44966569  0.71006075  0.70708012     0.07700
C408        C  0.43931872  0.73975892  0.76177775    -0.11500
C409        C  0.41637807  0.73372023  0.78801654    -0.10800
C410        C  0.44592438  0.71962305  0.81104596    -0.01700
C411        C  0.49890472  0.71236102  0.80720695    -0.11900
C412        C  0.52161117  0.71791218  0.78109466    -0.10300
H413        H  0.41541903  0.75081778  0.74455952     0.07700
H414        H  0.37554215  0.73984092  0.79023457     0.11400
H415        H  0.52296992  0.70118220  0.82434842     0.11100
H416        H  0.56207594  0.71003252  0.77903617     0.07600
C417        C  0.48248962  0.56061166  0.00198362    -0.11500
C418        C  0.48081161  0.51571945  0.99054620     0.05700
C419        C  0.45096361  0.50853748  0.96656661    -0.10200
C420        C  0.42672752  0.54544345  0.95332577    -0.11900
C421        C  0.43235507  0.59081387  0.96331513    -0.01700
C422        C  0.45883170  0.59785556  0.98838089    -0.10800
C423        C  0.51217550  0.47723253  0.00253629     0.05700
H424        H  0.44854143  0.47488474  0.95693023     0.07600
H425        H  0.40604865  0.53866635  0.93417385     0.11100
H426        H  0.46359879  0.63232718  0.99666938     0.11400
H427        H  0.50340789  0.56736792  0.02102054     0.07700
C428        C  0.55943731  0.48648743  0.01561911    -0.11500
C429        C  0.58792517  0.45109280  0.02794254    -0.10800
C430        C  0.57068947  0.40531879  0.02689909    -0.01700
C431        C  0.52533481  0.39528820  0.01237030    -0.11900
C432        C  0.49602594  0.43090138  0.00059689    -0.10300
H433        H  0.57434110  0.52122732  0.01673598     0.07700
H434        H  0.62265044  0.45972654  0.03924016     0.11400
H435        H  0.51066085  0.36039094  0.01181912     0.11100
H436        H  0.45973513  0.42211113  0.99100880     0.07600
C437        C  0.02564731  0.79608087  0.20951392    -0.11500
C438        C  0.99739646  0.78304539  0.23311839     0.05700
C439        C  0.94495384  0.77222197  0.22960782    -0.10200
C440        C  0.92118335  0.77596568  0.20344947    -0.11900
C441        C  0.94946199  0.78992058  0.18009253    -0.01700
C442        C  0.00217128  0.79910367  0.18342583    -0.10800
C443        C  0.02200556  0.78342272  0.26131259     0.05700
H444        H  0.92201293  0.76113717  0.24710987     0.07600
H445        H  0.88063061  0.76839873  0.20156920     0.11100
H446        H  0.02522085  0.81024660  0.16595441     0.11400
H447        H  0.06565689  0.80566246  0.21122991     0.07700
C448        C  0.07473401  0.77347860  0.26477838    -0.11500
C449        C  0.09851600  0.77811904  0.29083587    -0.10800
C450        C  0.07002076  0.79211848  0.31417050    -0.01700
C451        C  0.01707913  0.80033250  0.31095347    -0.11900
C452        C  0.99351485  0.79638237  0.28491311    -0.10300
H453        H  0.09790549  0.76242739  0.24731255     0.07700
H454        H  0.13930041  0.77126499  0.29263814     0.11400
H455        H  0.99395211  0.81144927  0.32844256     0.11100
H456        H  0.95322733  0.80522988  0.28320300     0.07600
C457        C  0.18655169  0.70190529  0.99263717    -0.11500
C458        C  0.15371971  0.73998267  0.98927266     0.05700
C459        C  0.15895059  0.76784549  0.96550225    -0.10200
C460        C  0.19738700  0.75850492  0.94587477    -0.11900
C461        C  0.23182745  0.72171169  0.95001858    -0.01700
C462        C  0.22545077  0.69309159  0.97335436    -0.10800
C463        C  0.11445991  0.75055718  0.01070203     0.05700
H464        H  0.13363779  0.79709522  0.96230069     0.07600
H465        H  0.20181928  0.78142268  0.92825331     0.11100
H466        H  0.25158271  0.66460767  0.97712270     0.11400
H467        H  0.18328265  0.67991851  0.01076052     0.07700
C468        C  0.08157293  0.71577950  0.02025110    -0.11500
C469        C  0.04309381  0.72584787  0.03958607    -0.10800
C470        C  0.03701733  0.77082767  0.05010837    -0.01700
C471        C  0.07148772  0.80521193  0.04148508    -0.11900
C472        C  0.10960352  0.79523183  0.02179183    -0.10300
H473        H  0.08452652  0.68109640  0.01200587     0.07700
H474        H  0.01688920  0.69869275  0.04558097     0.11400
H475        H  0.06737470  0.84032657  0.04887211     0.11100
H476        H  0.13498166  0.82250063  0.01498919     0.07600
C477        C  0.68548310  0.81729531  0.99969087    -0.11500
C478        C  0.65632343  0.77660209  0.00006826     0.05700
C479        C  0.66340374  0.74553167  0.02230296    -0.10200
C480        C  0.70014283  0.75405326  0.04303157    -0.11900
C481        C  0.73099612  0.79356891  0.04179319    -0.01700
C482        C  0.72268716  0.82545993  0.02017273    -0.10800
C483        C  0.61888953  0.76624168  0.97736947     0.05700
H484        H  0.64090473  0.71426884  0.02348002     0.07600
H485        H  0.70634138  0.72850909  0.05915111     0.11100
H486        H  0.74631140  0.85602154  0.01858381     0.11400
H487        H  0.68106139  0.84191888  0.98291200     0.07700
C488        C  0.58612222  0.80077368  0.96686752    -0.11500
C489        C  0.54704845  0.78969934  0.94794364    -0.10800
C490        C  0.54020188  0.74395984  0.93882847    -0.01700
C491        C  0.57544868  0.71018578  0.94765675    -0.11900
C492        C  0.61417733  0.72116939  0.96680027    -0.10300
H493        H  0.58881513  0.83585575  0.97444698     0.07700
H494        H  0.52052357  0.81655738  0.94153316     0.11400
H495        H  0.57111771  0.67463267  0.94117854     0.11100
H496        H  0.63962458  0.69401305  0.97395837     0.07600
C497        C  0.74940429  0.10655530  0.13368138    -0.11500
C498        C  0.73591349  0.06832646  0.11736808     0.05700
C499        C  0.69912468  0.07424678  0.09607866    -0.10200
C500        C  0.67744271  0.11779106  0.09073748    -0.11900
C501        C  0.69115841  0.15595796  0.10706367    -0.01700
C502        C  0.72693661  0.14966818  0.12877877    -0.10800
C503        C  0.76090700  0.02269500  0.12212000     0.05700
H504        H  0.68821070  0.04541112  0.08304234     0.07600
H505        H  0.65010519  0.12165492  0.07388025     0.11100
H506        H  0.73872452  0.17854654  0.14157078     0.11400
H507        H  0.77728195  0.10306445  0.15031574     0.07700
C508        C  0.81446371  0.01903895  0.12580718    -0.11500
C509        C  0.83824268  0.97567301  0.12805366    -0.10800
C510        C  0.80887301  0.93512399  0.12683428    -0.01700
C511        C  0.75512980  0.93905886  0.12448931    -0.11900
C512        C  0.73150663  0.98224278  0.12208894    -0.10300
H513        H  0.83817594  0.04964279  0.12577540     0.07700
H514        H  0.87972321  0.97385941  0.12947529     0.11400
H515        H  0.73128781  0.90857174  0.12351454     0.11100
H516        H  0.69016098  0.98398911  0.11976534     0.07600
C517        C  0.81837615  0.58805439  0.12270139    -0.11500
C518        C  0.78270343  0.57066094  0.10349936     0.05700
C519        C  0.77237045  0.59571548  0.07909663    -0.10200
C520        C  0.79675629  0.63793532  0.07421681    -0.11900
C521        C  0.83100248  0.65620127  0.09396441    -0.01700
C522        C  0.84185264  0.63064694  0.11814234    -0.10800
C523        C  0.75678367  0.52622607  0.10892552     0.05700
H524        H  0.74524891  0.58267979  0.06391598     0.07600
H525        H  0.78694912  0.65732039  0.05567516     0.11100
H526        H  0.86764248  0.64415966  0.13384775     0.11400
H527        H  0.82688518  0.56926395  0.14164785     0.07700
C528        C  0.78611156  0.48652403  0.11415403    -0.11500
C529        C  0.76217102  0.44404482  0.11824288    -0.10800
C530        C  0.70829740  0.44047910  0.11772616    -0.01700
C531        C  0.67883036  0.48059063  0.11345099    -0.11900
C532        C  0.70293077  0.52307125  0.10882222    -0.10300
H533        H  0.82766448  0.48818788  0.11426672     0.07700
H534        H  0.78595018  0.41371387  0.12125666     0.11400
H535        H  0.63732831  0.47877590  0.11253483     0.11100
H536        H  0.67960681  0.55344071  0.10501193     0.07600
C537        C  0.00857869  0.24041391  0.71150368    -0.11500
C538        C  0.98581439  0.22207617  0.73555566     0.05700
C539        C  0.93600519  0.20325083  0.73320012    -0.10200
C540        C  0.91084582  0.20093525  0.70729979    -0.11900
C541        C  0.93517612  0.21692924  0.68312446    -0.01700
C542        C  0.98375112  0.23766393  0.68570204    -0.10800
C543        C  0.01464489  0.22112544  0.76263190     0.05700
H544        H  0.91721973  0.18847570  0.75117020     0.07600
H545        H  0.87362050  0.18455306  0.70597280     0.11100
H546        H  0.00325431  0.25091907  0.66749949     0.11400
H547        H  0.04606778  0.25633568  0.71250277     0.07700
C548        C  0.06818394  0.21307610  0.76348778    -0.11500
C549        C  0.09460265  0.20982914  0.78899239    -0.10800
C550        C  0.06806552  0.21426556  0.81428948    -0.01700
C551        C  0.01489750  0.22346411  0.81335735    -0.11900
C552        C  0.98866655  0.22695636  0.78799362    -0.10300
H553        H  0.08955822  0.20781298  0.74443711     0.07700
H554        H  0.13538247  0.20242346  0.78891825     0.11400
H555        H  0.99314694  0.22753578  0.83240398     0.11100
H556        H  0.94785645  0.23414373  0.78830386     0.07600
C557        C  0.06000272  0.02298674  0.97875599    -0.11500
C558        C  0.01487826  0.03435553  0.99328193     0.05700
C559        C  0.00188901  0.08124235  0.99666176    -0.10200
C560        C  0.03235164  0.11570564  0.98493377    -0.11900
C561        C  0.07557847  0.10389688  0.96904491    -0.01700
C562        C  0.08966680  0.05734304  0.96650920    -0.10800
C563        C  0.98248849  0.99735907  0.00537646     0.05700
H564        H  0.96720965  0.09136441  0.00748770     0.07600
H565        H  0.02017116  0.15133893  0.98671250     0.11100
H566        H  0.12270637  0.04743052  0.95416410     0.11400
H567        H  0.07216416  0.98744584  0.97650090     0.07700
C568        C  0.97774732  0.95411995  0.99215467    -0.11500
C569        C  0.95294118  0.91750874  0.00544405    -0.10800
C570        C  0.93180971  0.92377796  0.03198168    -0.01700
C571        C  0.93295463  0.96798876  0.04411872    -0.11900
C572        C  0.95835280  0.00415003  0.03112580    -0.10300
H573        H  0.99456180  0.94812283  0.97188306     0.07700
H574        H  0.95246397  0.88392913  0.99556837     0.11400
H575        H  0.91678573  0.97416791  0.06455230     0.11100
H576        H  0.96134434  0.03667419  0.04206513     0.07600
C577        C  0.21724954  0.43055043  0.91156013    -0.11500
C578        C  0.23567879  0.44345654  0.88520202     0.05700
C579        C  0.22910653  0.41324273  0.86271377    -0.10200
C580        C  0.20527342  0.37061651  0.86651504    -0.11900
C581        C  0.18822054  0.35687388  0.89302819    -0.01700
C582        C  0.19411427  0.38749859  0.91549494    -0.10800
C583        C  0.26073598  0.48873715  0.88099741     0.05700
H584        H  0.24234573  0.42271381  0.84214502     0.07600
H585        H  0.20165852  0.34781160  0.84876781     0.11100
H586        H  0.18177824  0.37784033  0.93619196     0.11400
H587        H  0.22188345  0.45337265  0.92923848     0.07700
C588        C  0.23660957  0.52897843  0.89048311    -0.11500
C589        C  0.25937978  0.57188323  0.88639856    -0.10800
C590        C  0.30739881  0.57569340  0.87312529    -0.01700
C591        C  0.33181705  0.53532971  0.86368887    -0.11900
C592        C  0.30835013  0.49221626  0.86731860    -0.10300
H593        H  0.19981652  0.52724376  0.90091601     0.07700
H594        H  0.23974219  0.60211657  0.89435782     0.11400
H595        H  0.36907103  0.53705248  0.85377228     0.11100
H596        H  0.32780055  0.46147288  0.85996141     0.07600
C597        C  0.28967522  0.02808254  0.87654299    -0.11500
C598        C  0.26178055  0.98852918  0.88352632     0.05700
C599        C  0.20814411  0.99135882  0.88589704    -0.10200
C600        C  0.18273616  0.03346799  0.88175498    -0.11900
C601        C  0.21076008  0.07357295  0.87569804    -0.01700
C602        C  0.26447084  0.07033982  0.87296801    -0.10800
C603        C  0.28859536  0.94427897  0.88822917     0.05700
H604        H  0.18603357  0.96100125  0.89112776     0.07600
H605        H  0.14148719  0.03504962  0.88445826     0.11100
H606        H  0.28713783  0.10072464  0.86857642     0.11400
H607        H  0.33107759  0.02644706  0.87458748     0.07700
C608        C  0.31321672  0.92194138  0.86608410    -0.11500
C609        C  0.33552325  0.87849614  0.86993903    -0.10800
C610        C  0.33429843  0.85688621  0.89615760    -0.01700
C611        C  0.31160248  0.88038029  0.91863441    -0.11900
C612        C  0.28853922  0.92358979  0.91462583    -0.10300
H613        H  0.31361394  0.93747349  0.84558581     0.07700
H614        H  0.35247500  0.86123882  0.85217564     0.11400
H615        H  0.30961175  0.86449938  0.93899659     0.11100
H616        H  0.26993296  0.94059832  0.93199056     0.07600
C617        C  0.36072742  0.26572231  0.96866245    -0.11500
C618        C  0.36551128  0.23628714  0.99184582     0.05700
C619        C  0.33244917  0.19833147  0.99397576    -0.10200
C620        C  0.29344996  0.19155060  0.97437669    -0.11900
C621        C  0.28714909  0.22201702  0.95186832    -0.01700
C622        C  0.32217496  0.25837615  0.94867582    -0.10800
C623        C  0.40326391  0.24594530  0.01439410     0.05700
H624        H  0.33516305  0.17513309  0.01157345     0.07600
H625        H  0.26689981  0.16330171  0.97737008     0.11100
H626        H  0.31786348  0.28263546  0.93169481     0.11400
H627        H  0.38616623  0.29494165  0.96633043     0.07700
C628        C  0.43417638  0.21045762  0.02534070    -0.11500
C629        C  0.47076086  0.21984721  0.04597149    -0.10800
C630        C  0.47682863  0.26484075  0.05640908    -0.01700
C631        C  0.44394760  0.29982667  0.04647341    -0.11900
C632        C  0.40794909  0.29056518  0.02552519    -0.10300
H633        H  0.43131485  0.17572513  0.01720352     0.07700
H634        H  0.49579774  0.19221953  0.05290671     0.11400
H635        H  0.44791079  0.33498576  0.05376586     0.11100
H636        H  0.38400817  0.31842507  0.01783189     0.07600
C637        C  0.82163469  0.30939155  0.99677387    -0.11500
C638        C  0.85979662  0.27584528  0.00110851     0.05700
C639        C  0.85914700  0.25014653  0.02596449    -0.10200
C640        C  0.82021385  0.25679582  0.04567396    -0.11900
C641        C  0.78068349  0.28874751  0.04068565    -0.01700
C642        C  0.78219878  0.31542300  0.01621569    -0.10800
C643        C  0.89893038  0.26609952  0.97936301     0.05700
H644        H  0.88845451  0.22436455  0.02994935     0.07600
H645        H  0.81967457  0.23543852  0.06415100     0.11100
H646        H  0.75206751  0.34024380  0.01179570     0.11400
H647        H  0.82110491  0.32957158  0.97781661     0.07700
C648        C  0.90970188  0.22034295  0.97173979    -0.11500
C649        C  0.94840330  0.21036759  0.95255990    -0.10800
C650        C  0.97826221  0.24583881  0.94102471    -0.01700
C651        C  0.96624530  0.29183250  0.94776779    -0.11900
C652        C  0.92640643  0.30191183  0.96648446    -0.10300
H653        H  0.88857387  0.19211102  0.98096479     0.07700
H654        H  0.95683153  0.17456008  0.94798743     0.11400
H655        H  0.98875902  0.31985435  0.93931311     0.11100
H656        H  0.91866862  0.33752213  0.97188355     0.07600
loop_ 
_geom_bond_atom_site_label_1 
_geom_bond_atom_site_label_2 
_geom_bond_distance 
_geom_bond_site_symmetry_2 
_ccdc_geom_bond_type 
O1          Cr19   2.015       .  S
O1            C9   1.267       .  A
O2          Cr19   1.958       .  S
O2            C3   1.253       .  A
C3            O4   1.268       .  A
C3          C561   1.469       .  S
O4          Cr20   2.032       .  S
O5          Cr20   1.966       .  S
O5            C6   1.258       .  A
C6            O7   1.273       .  A
C6          C621   1.482       .  S
O7          Cr21   2.043       .  S
O8          Cr21   1.966       .  S
O8            C9   1.256       .  A
C9          C601   1.481       .  S
O10         Cr19   1.960       .  S
O10          C18   1.258       .  A
O11         Cr19   2.023       .  S
O11          C12   1.271       .  A
C12          O13   1.262       .  A
C12         C650   1.483   1_455  S
O13         Cr20   1.977       .  S
O14         Cr20   2.029       .  S
O14          C15   1.272       .  A
C15          O16   1.260       .  A
C15         C581   1.483       .  S
O16         Cr21   1.964       .  S
O17         Cr21   2.050       .  S
O17          C18   1.276       .  A
C18         C550   1.493       .  S
Cr19         O22   1.760       .  S
Cr20         O22   1.766       .  S
Cr21         O22   1.769       .  S
O23         Cr41   1.965       .  S
O23          C31   1.259       .  A
O24         Cr41   2.046       .  S
O24          C25   1.274       .  A
C25          O26   1.255       .  A
C25         C481   1.481       .  S
O26         Cr42   1.961       .  S
O27         Cr42   2.039       .  S
O27          C28   1.272       .  A
C28          O29   1.251       .  A
C28         C570   1.476       .  S
O29         Cr43   1.942       .  S
O30         Cr43   2.023       .  S
O30          C31   1.270       .  A
C31         C510   1.485       .  S
O32         Cr41   2.042       .  S
O32          C40   1.275       .  A
O33         Cr41   1.962       .  S
O33          C34   1.258       .  A
C34          O35   1.274       .  A
C34         C521   1.478       .  S
O35         Cr42   2.038       .  S
O36         Cr42   1.965       .  S
O36          C37   1.258       .  A
C37          O38   1.272       .  A
C37         C470   1.483   1_655  S
O38         Cr43   2.036       .  S
O39         Cr43   1.959       .  S
O39          C40   1.258       .  A
C40         C441   1.487       .  S
Cr41         O44   1.763       .  S
Cr42         O44   1.760       .  S
Cr43         O44   1.758       .  S
O45         Cr63   1.957       .  S
O45          C53   1.257       .  A
O46         Cr63   2.035       .  S
O46          C47   1.271       .  A
C47          O48   1.257       .  A
C47         C461   1.479       .  S
O48         Cr64   1.966       .  S
O49         Cr64   2.042       .  S
O49          C50   1.271       .  A
C50          O51   1.252       .  A
C50         C421   1.482       .  S
O51         Cr65   1.950       .  S
O52         Cr65   2.024       .  S
O52          C53   1.271       .  A
C53         C590   1.484       .  S
O54         Cr63   2.039       .  S
O54          C62   1.273       .  A
O55         Cr63   1.962       .  S
O55          C56   1.260       .  A
C56          O57   1.274       .  A
C56         C610   1.481       .  S
O57         Cr64   2.035       .  S
O58         Cr64   1.965       .  S
O58          C59   1.258       .  A
C59          O60   1.274       .  A
C59         C490   1.485       .  S
O60         Cr65   2.038       .  S
O61         Cr65   1.967       .  S
O61          C62   1.260       .  A
C62         C410   1.493       .  S
Cr63         O66   1.767       .  S
Cr64         O66   1.762       .  S
Cr65         O66   1.761       .  S
O67         Cr85   2.019       .  S
O67          C75   1.267       .  A
O68         Cr85   1.955       .  S
O68          C69   1.254       .  A
C69          O70   1.273       .  A
C69         C430   1.473       .  S
O70         Cr86   2.046       .  S
O71         Cr86   1.960       .  S
O71          C72   1.256       .  A
C72          O73   1.274       .  A
C72         C641   1.481       .  S
O73         Cr87   2.041       .  S
O74         Cr87   1.963       .  S
O74          C75   1.255       .  A
C75         C530   1.481       .  S
O76         Cr85   1.956       .  S
O76          C84   1.259       .  A
O77         Cr85   2.028       .  S
O77          C78   1.270       .  A
C78          O79   1.259       .  A
C78         C630   1.485       .  S
O79         Cr86   1.971       .  S
O80         Cr86   2.044       .  S
O80          C81   1.275       .  A
C81          O82   1.257       .  A
C81         C501   1.485       .  S
O82         Cr87   1.957       .  S
O83         Cr87   2.052       .  S
O83          C84   1.278       .  A
C84         C390   1.489       .  S
Cr85         O88   1.762       .  S
Cr86         O88   1.764       .  S
Cr87         O88   1.768       .  S
O89        Cr107   2.017       .  S
O89          C97   1.267       .  A
O90        Cr107   1.958       .  S
O90          C91   1.256       .  A
C91          O92   1.272       .  A
C91         C321   1.476       .  S
O92        Cr108   2.043       .  S
O93        Cr108   1.957       .  S
O93          C94   1.257       .  A
C94          O95   1.274       .  A
C94         C350   1.490       .  S
O95        Cr109   2.043       .  S
O96        Cr109   1.960       .  S
O96          C97   1.255       .  A
C97         C290   1.477       .  S
O98        Cr107   1.962       .  S
O98         C106   1.259       .  A
O99        Cr107   2.020       .  S
O99         C100   1.268       .  A
C100        O101   1.258       .  A
C100        C361   1.483   1_655  S
O101       Cr108   1.970       .  S
O102       Cr108   2.032       .  S
O102        C103   1.273       .  A
C103        O104   1.258       .  A
C103        C301   1.482       .  S
O104       Cr109   1.958       .  S
O105       Cr109   2.049       .  S
O105        C106   1.276       .  A
C106        C541   1.489       .  S
Cr107       O110   1.762       .  S
Cr108       O110   1.765       .  S
Cr109       O110   1.770       .  S
O111       Cr129   1.965       .  S
O111        C119   1.259       .  A
O112       Cr129   2.032       .  S
O112        C113   1.270       .  A
C113        O114   1.255       .  A
C113        C221   1.473       .  S
O114       Cr130   1.959       .  S
O115       Cr130   2.042       .  S
O115        C116   1.272       .  A
C116        O117   1.253       .  A
C116        C330   1.483       .  S
O117       Cr131   1.956       .  S
O118       Cr131   2.013       .  S
O118        C119   1.269       .  A
C119        C250   1.474       .  S
O120       Cr129   2.028       .  S
O120        C128   1.272       .  A
O121       Cr129   1.963       .  S
O121        C122   1.259       .  A
C122        O123   1.274       .  A
C122        C270   1.478       .  S
O123       Cr130   2.038       .  S
O124       Cr130   1.961       .  S
O124        C125   1.256       .  A
C125        O126   1.272       .  A
C125        C201   1.479   1_455  S
O126       Cr131   2.034       .  S
O127       Cr131   1.967       .  S
O127        C128   1.260       .  A
C128        C450   1.485       .  S
Cr129       O132   1.767       .  S
Cr130       O132   1.758       .  S
Cr131       O132   1.759       .  S
O133       Cr151   1.956       .  S
O133        C141   1.257       .  A
O134       Cr151   2.039       .  S
O134        C135   1.273       .  A
C135        O136   1.257       .  A
C135        C210   1.479       .  S
O136       Cr152   1.964       .  S
O137       Cr152   2.038       .  S
O137        C138   1.271       .  A
C138        O139   1.253       .  A
C138        C190   1.483       .  S
O139       Cr153   1.955       .  S
O140       Cr153   2.017       .  S
O140        C141   1.270       .  A
C141        C310   1.480       .  S
O142       Cr151   2.039       .  S
O142        C150   1.274       .  A
O143       Cr151   1.961       .  S
O143        C144   1.259       .  A
C144        O145   1.273       .  A
C144        C281   1.477       .  S
O145       Cr152   2.036       .  S
O146       Cr152   1.958       .  S
O146        C147   1.258       .  A
C147        O148   1.272       .  A
C147        C230   1.475       .  S
O148       Cr153   2.031       .  S
O149       Cr153   1.967       .  S
O149        C150   1.258       .  A
C150        C401   1.492       .  S
Cr151       O154   1.763       .  S
Cr152       O154   1.759       .  S
Cr153       O154   1.760       .  S
O155       Cr173   2.020       .  S
O155        C163   1.271       .  A
O156       Cr173   1.957       .  S
O156        C157   1.253       .  A
C157        O158   1.270       .  A
C157        C181   1.475       .  S
O158       Cr174   2.037       .  S
O159       Cr174   1.961       .  S
O159        C160   1.256       .  A
C160        O161   1.273       .  A
C160        C370   1.480       .  S
O161       Cr175   2.046       .  S
O162       Cr175   1.963       .  S
O162        C163   1.258       .  A
C163        C261   1.479       .  S
O164       Cr173   1.962       .  S
O164        C172   1.257       .  A
O165       Cr173   2.031       .  S
O165        C166   1.272       .  A
C166        O167   1.259       .  A
C166        C341   1.484       .  S
O167       Cr174   1.964       .  S
O168       Cr174   2.034       .  S
O168        C169   1.274       .  A
C169        O170   1.259       .  A
C169        C241   1.478       .  S
O170       Cr175   1.963       .  S
O171       Cr175   2.047       .  S
O171        C172   1.274       .  A
C172        C381   1.490       .  S
Cr173       O176   1.757       .  S
Cr174       O176   1.761       .  S
Cr175       O176   1.769       .  S
C177        C178   1.407       .  A
C177        C182   1.395       .  A
C177        H187   1.082       .  S
C178        C183   1.492       .  S
C178        C179   1.410       .  A
C179        C180   1.401       .  A
C179        H184   1.082       .  S
C180        C181   1.404       .  A
C180        H185   1.084       .  S
C181        C182   1.404       .  A
C182        H186   1.084       .  S
C183        C188   1.411       .  A
C183        C192   1.404       .  A
C188        C189   1.401       .  A
C188        H193   1.082       .  S
C189        C190   1.402       .  A
C189        H194   1.083       .  S
C190        C191   1.409       .  A
C191        C192   1.396       .  A
C191        H195   1.083       .  S
C192        H196   1.082       .  S
C197        C198   1.407       .  A
C197        C202   1.400       .  A
C197        H207   1.083       .  S
C198        C203   1.488       .  S
C198        C199   1.406       .  A
C199        C200   1.398       .  A
C199        H204   1.083       .  S
C200        C201   1.406       .  A
C200        H205   1.084   1_655  S
C201        C202   1.404       .  A
C202        H206   1.083       .  S
C203        C208   1.408       .  A
C203        C212   1.405       .  A
C208        C209   1.401       .  A
C208        H213   1.083       .  S
C209        C210   1.404       .  A
C209        H214   1.083       .  S
C210        C211   1.406       .  A
C211        C212   1.398       .  A
C211        H215   1.083       .  S
C212        H216   1.083       .  S
C217        C218   1.407       .  A
C217        C222   1.399       .  A
C217        H227   1.083       .  S
C218        C223   1.484       .  S
C218        C219   1.405       .  A
C219        C220   1.395       .  A
C219        H224   1.083       .  S
C220        C221   1.404       .  A
C220        H225   1.083       .  S
C221        C222   1.404       .  A
C222        H226   1.083       .  S
C223        C228   1.407       .  A
C223        C232   1.404       .  A
C228        C229   1.400       .  A
C228        H233   1.083       .  S
C229        C230   1.404       .  A
C229        H234   1.083       .  S
C230        C231   1.404       .  A
C231        C232   1.394       .  A
C231        H235   1.083       .  S
C232        H236   1.083       .  S
C237        C238   1.405       .  A
C237        C242   1.398       .  A
C237        H247   1.083       .  S
C238        C243   1.478       .  S
C238        C239   1.402       .  A
C239        C240   1.398       .  A
C239        H244   1.083       .  S
C240        C241   1.407       .  A
C240        H245   1.083       .  S
C241        C242   1.404       .  A
C242        H246   1.083       .  S
C243        C248   1.404   1_545  A
C243        C252   1.404       .  A
C248        C249   1.399       .  A
C248        H253   1.083       .  S
C249        C250   1.406       .  A
C249        H254   1.083       .  S
C250        C251   1.403       .  A
C251        C252   1.396   1_565  A
C251        H255   1.083       .  S
C252        H256   1.083       .  S
C257        C258   1.405       .  A
C257        C262   1.398       .  A
C257        H267   1.083       .  S
C258        C263   1.486       .  S
C258        C259   1.407       .  A
C259        C260   1.401       .  A
C259        H264   1.083       .  S
C260        C261   1.405       .  A
C260        H265   1.083       .  S
C261        C262   1.406       .  A
C262        H266   1.083       .  S
C263        C268   1.404       .  A
C263        C272   1.407       .  A
C268        C269   1.397       .  A
C268        H273   1.083       .  S
C269        C270   1.405       .  A
C269        H274   1.083       .  S
C270        C271   1.405       .  A
C271        C272   1.401       .  A
C271        H275   1.083       .  S
C272        H276   1.083       .  S
C277        C278   1.403       .  A
C277        C282   1.395       .  A
C277        H287   1.083       .  S
C278        C283   1.482       .  S
C278        C279   1.406       .  A
C279        C280   1.402       .  A
C279        H284   1.083       .  S
C280        C281   1.406       .  A
C280        H285   1.083       .  S
C281        C282   1.405       .  A
C282        H286   1.083       .  S
C283        C288   1.403   1_565  A
C283        C292   1.407       .  A
C288        C289   1.395       .  A
C288        H293   1.083       .  S
C289        C290   1.405       .  A
C289        H294   1.083       .  S
C290        C291   1.406       .  A
C291        C292   1.402   1_545  A
C291        H295   1.083       .  S
C292        H296   1.083       .  S
C297        C298   1.402       .  A
C297        C302   1.396       .  A
C297        H307   1.083       .  S
C298        C303   1.485       .  S
C298        C299   1.409       .  A
C299        C300   1.401       .  A
C299        H304   1.083       .  S
C300        C301   1.404       .  A
C300        H305   1.083       .  S
C301        C302   1.408       .  A
C302        H306   1.083       .  S
C303        C308   1.408       .  A
C303        C312   1.402       .  A
C308        C309   1.400       .  A
C308        H313   1.083       .  S
C309        C310   1.404       .  A
C309        H314   1.083       .  S
C310        C311   1.408       .  A
C311        C312   1.395       .  A
C311        H315   1.083       .  S
C312        H316   1.083       .  S
C317        C318   1.412       .  A
C317        C322   1.404   1_455  A
C317        H327   1.082       .  S
C318        C323   1.497       .  S
C318        C319   1.408   1_455  A
C319        C320   1.394       .  A
C319        H324   1.082   1_545  S
C320        C321   1.402       .  A
C320        H325   1.084       .  S
C321        C322   1.404       .  A
C322        H326   1.083   1_655  S
C323        C328   1.406       .  A
C323        C332   1.413   1_545  A
C328        C329   1.398   1_545  A
C328        H333   1.082       .  S
C329        C330   1.409       .  A
C329        H334   1.083       .  S
C330        C331   1.401       .  A
C331        C332   1.400       .  A
C331        H335   1.083       .  S
C332        H336   1.082       .  S
C337        C338   1.405       .  A
C337        C342   1.400       .  A
C337        H347   1.083       .  S
C338        C343   1.482       .  S
C338        C339   1.401       .  A
C339        C340   1.400       .  A
C339        H344   1.083       .  S
C340        C341   1.410       .  A
C340        H345   1.083       .  S
C341        C342   1.405       .  A
C342        H346   1.083       .  S
C343        C348   1.399       .  A
C343        C352   1.407       .  A
C348        C349   1.395       .  A
C348        H353   1.083       .  S
C349        C350   1.410       .  A
C349        H354   1.083       .  S
C350        C351   1.407       .  A
C351        C352   1.407       .  A
C351        H355   1.083       .  S
C352        H356   1.083       .  S
C357        C358   1.405       .  A
C357        C362   1.400       .  A
C357        H367   1.083       .  S
C358        C363   1.485       .  S
C358        C359   1.404       .  A
C359        C360   1.399       .  A
C359        H364   1.083       .  S
C360        C361   1.408       .  A
C360        H365   1.083       .  S
C361        C362   1.406       .  A
C362        H366   1.083       .  S
C363        C368   1.408       .  A
C363        C372   1.402       .  A
C368        C369   1.404       .  A
C368        H373   1.083       .  S
C369        C370   1.405       .  A
C369        H374   1.083       .  S
C370        C371   1.406       .  A
C371        C372   1.397       .  A
C371        H375   1.083       .  S
C372        H376   1.083       .  S
C377        C378   1.404       .  A
C377        C382   1.399       .  A
C377        H387   1.082       .  S
C378        C383   1.498       .  S
C378        C379   1.413       .  A
C379        C380   1.406       .  A
C379        H384   1.083       .  S
C380        C381   1.405       .  A
C380        H385   1.083       .  S
C381        C382   1.408       .  A
C382        H386   1.083       .  S
C383        C388   1.413       .  A
C383        C392   1.403       .  A
C388        C389   1.408       .  A
C388        H393   1.083       .  S
C389        C390   1.405       .  A
C389        H394   1.083       .  S
C390        C391   1.408       .  A
C391        C392   1.397       .  A
C391        H395   1.083       .  S
C392        H396   1.082       .  S
C397        C398   1.407       .  A
C397        C402   1.400       .  A
C397        H407   1.082       .  S
C398        C403   1.502       .  S
C398        C399   1.412       .  A
C399        C400   1.405       .  A
C399        H404   1.082       .  S
C400        C401   1.405       .  A
C400        H405   1.083       .  S
C401        C402   1.409       .  A
C402        H406   1.083       .  S
C403        C408   1.413       .  A
C403        C412   1.406       .  A
C408        C409   1.407       .  A
C408        H413   1.082       .  S
C409        C410   1.407       .  A
C409        H414   1.083       .  S
C410        C411   1.407       .  A
C411        C412   1.398       .  A
C411        H415   1.083       .  S
C412        H416   1.082       .  S
C417        C418   1.413   1_554  A
C417        C422   1.403   1_554  A
C417        H427   1.082       .  S
C418        C423   1.495   1_556  S
C418        C419   1.404       .  A
C419        C420   1.394       .  A
C419        H424   1.082       .  S
C420        C421   1.408       .  A
C420        H425   1.084       .  S
C421        C422   1.402       .  A
C422        H426   1.083       .  S
C423        C428   1.407       .  A
C423        C432   1.412       .  A
C428        C429   1.396       .  A
C428        H433   1.082       .  S
C429        C430   1.403       .  A
C429        H434   1.084       .  S
C430        C431   1.402       .  A
C431        C432   1.401       .  A
C431        H435   1.083       .  S
C432        H436   1.082   1_554  S
C437        C438   1.406   1_455  A
C437        C442   1.396       .  A
C437        H447   1.082       .  S
C438        C443   1.498   1_655  S
C438        C439   1.412       .  A
C439        C440   1.404       .  A
C439        H444   1.082       .  S
C440        C441   1.404       .  A
C440        H445   1.083       .  S
C441        C442   1.408   1_655  A
C442        H446   1.083       .  S
C443        C448   1.411       .  A
C443        C452   1.406   1_455  A
C448        C449   1.402       .  A
C448        H453   1.082       .  S
C449        C450   1.405       .  A
C449        H454   1.083       .  S
C450        C451   1.406       .  A
C451        C452   1.397   1_455  A
C451        H455   1.083   1_455  S
C452        H456   1.082       .  S
C457        C458   1.403       .  A
C457        C462   1.397       .  A
C457        H467   1.083   1_556  S
C458        C463   1.483   1_556  S
C458        C459   1.407       .  A
C459        C460   1.402       .  A
C459        H464   1.083       .  S
C460        C461   1.405       .  A
C460        H465   1.083       .  S
C461        C462   1.406       .  A
C462        H466   1.083       .  S
C463        C468   1.403       .  A
C463        C472   1.406       .  A
C468        C469   1.398       .  A
C468        H473   1.083       .  S
C469        C470   1.407       .  A
C469        H474   1.083       .  S
C470        C471   1.407       .  A
C471        C472   1.402       .  A
C471        H475   1.083       .  S
C472        H476   1.083       .  S
C477        C478   1.405   1_556  A
C477        C482   1.400   1_556  A
C477        H487   1.083       .  S
C478        C483   1.492   1_554  S
C478        C479   1.409       .  A
C479        C480   1.402       .  A
C479        H484   1.083       .  S
C480        C481   1.403       .  A
C480        H485   1.083       .  S
C481        C482   1.407       .  A
C482        H486   1.083       .  S
C483        C488   1.406       .  A
C483        C492   1.407       .  A
C488        C489   1.401       .  A
C488        H493   1.083       .  S
C489        C490   1.408       .  A
C489        H494   1.083       .  S
C490        C491   1.405       .  A
C491        C492   1.401       .  A
C491        H495   1.083       .  S
C492        H496   1.083       .  S
C497        C498   1.402       .  A
C497        C502   1.398       .  A
C497        H507   1.083       .  S
C498        C503   1.490       .  S
C498        C499   1.410       .  A
C499        C500   1.405       .  A
C499        H504   1.083       .  S
C500        C501   1.403       .  A
C500        H505   1.083       .  S
C501        C502   1.409       .  A
C502        H506   1.083       .  S
C503        C508   1.409       .  A
C503        C512   1.403   1_545  A
C508        C509   1.404   1_545  A
C508        H513   1.083       .  S
C509        C510   1.406       .  A
C509        H514   1.083       .  S
C510        C511   1.408       .  A
C511        C512   1.398       .  A
C511        H515   1.083       .  S
C512        H516   1.083       .  S
C517        C518   1.403       .  A
C517        C522   1.397       .  A
C517        H527   1.083       .  S
C518        C523   1.480       .  S
C518        C519   1.405       .  A
C519        C520   1.401       .  A
C519        H524   1.083       .  S
C520        C521   1.405       .  A
C520        H525   1.083       .  S
C521        C522   1.406       .  A
C522        H526   1.083       .  S
C523        C528   1.402       .  A
C523        C532   1.405       .  A
C528        C529   1.396       .  A
C528        H533   1.083       .  S
C529        C530   1.407       .  A
C529        H534   1.083       .  S
C530        C531   1.406       .  A
C531        C532   1.402       .  A
C531        H535   1.083       .  S
C532        H536   1.083       .  S
C537        C538   1.405   1_455  A
C537        C542   1.399   1_455  A
C537        H547   1.082       .  S
C538        C543   1.501   1_655  S
C538        C539   1.413       .  A
C539        C540   1.407       .  A
C539        H544   1.083       .  S
C540        C541   1.404       .  A
C540        H545   1.083       .  S
C541        C542   1.407       .  A
C542        H546   1.084   1_655  S
C543        C548   1.413       .  A
C543        C552   1.405   1_455  A
C548        C549   1.407       .  A
C548        H553   1.083       .  S
C549        C550   1.405       .  A
C549        H554   1.083       .  S
C550        C551   1.409       .  A
C551        C552   1.399   1_455  A
C551        H555   1.083   1_455  S
C552        H556   1.082       .  S
C557        C558   1.406       .  A
C557        C562   1.394       .  A
C557        H567   1.082   1_545  S
C558        C563   1.486   1_446  S
C558        C559   1.409       .  A
C559        C560   1.398       .  A
C559        H564   1.082   1_456  S
C560        C561   1.402       .  A
C560        H565   1.083       .  S
C561        C562   1.403       .  A
C562        H566   1.084       .  S
C563        C568   1.411   1_554  A
C563        C572   1.402   1_565  A
C568        C569   1.400   1_556  A
C568        H573   1.082       .  S
C569        C570   1.401       .  A
C569        H574   1.083   1_554  S
C570        C571   1.408       .  A
C571        C572   1.391   1_565  A
C571        H575   1.084       .  S
C572        H576   1.082       .  S
C577        C578   1.407       .  A
C577        C582   1.401       .  A
C577        H587   1.083       .  S
C578        C583   1.482       .  S
C578        C579   1.401       .  A
C579        C580   1.397       .  A
C579        H584   1.083       .  S
C580        C581   1.408       .  A
C580        H585   1.083       .  S
C581        C582   1.406       .  A
C582        H586   1.083       .  S
C583        C588   1.399       .  A
C583        C592   1.408       .  A
C588        C589   1.394       .  A
C588        H593   1.083       .  S
C589        C590   1.409       .  A
C589        H594   1.083       .  S
C590        C591   1.405       .  A
C591        C592   1.404       .  A
C591        H595   1.083       .  S
C592        H596   1.083       .  S
C597        C598   1.401   1_545  A
C597        C602   1.398       .  A
C597        H607   1.083       .  S
C598        C603   1.476       .  S
C598        C599   1.403       .  A
C599        C600   1.401   1_565  A
C599        H604   1.083       .  S
C600        C601   1.406       .  A
C600        H605   1.083       .  S
C601        C602   1.408       .  A
C602        H606   1.083       .  S
C603        C608   1.400       .  A
C603        C612   1.403       .  A
C608        C609   1.397       .  A
C608        H613   1.083       .  S
C609        C610   1.408       .  A
C609        H614   1.083       .  S
C610        C611   1.406       .  A
C611        C612   1.401       .  A
C611        H615   1.083       .  S
C612        H616   1.083       .  S
C617        C618   1.409       .  A
C617        C622   1.405       .  A
C617        H627   1.083       .  S
C618        C623   1.489   1_556  S
C618        C619   1.403       .  A
C619        C620   1.398       .  A
C619        H624   1.083   1_556  S
C620        C621   1.406       .  A
C620        H625   1.083       .  S
C621        C622   1.405       .  A
C622        H626   1.083       .  S
C623        C628   1.406       .  A
C623        C632   1.405       .  A
C628        C629   1.401       .  A
C628        H633   1.083       .  S
C629        C630   1.407       .  A
C629        H634   1.083       .  S
C630        C631   1.408       .  A
C631        C632   1.401       .  A
C631        H635   1.083       .  S
C632        H636   1.083       .  S
C637        C638   1.403   1_556  A
C637        C642   1.400   1_556  A
C637        H647   1.083       .  S
C638        C643   1.487   1_554  S
C638        C639   1.408       .  A
C639        C640   1.401       .  A
C639        H644   1.083       .  S
C640        C641   1.403       .  A
C640        H645   1.083       .  S
C641        C642   1.408       .  A
C642        H646   1.083       .  S
C643        C648   1.403       .  A
C643        C652   1.407       .  A
C648        C649   1.396       .  A
C648        H653   1.083       .  S
C649        C650   1.406       .  A
C649        H654   1.083       .  S
C650        C651   1.406       .  A
C651        C652   1.404       .  A
C651        H655   1.083       .  S
C652        H656   1.083       .  S
