geometry optimzed in LAMMPS
_audit_creation_date              2020-12-01 
_audit_creation_method            'lammps2cif' 
_symmetry_space_group_name_H-M    'P1' 
_symmetry_Int_Tables_number       1 
_symmetry_cell_setting            triclinic 
loop_ 
_symmetry_equiv_pos_as_xyz 
  x,y,z 
_cell_length_a                    44.74182409 
_cell_length_b                    31.695004684447678 
_cell_length_c                    40.07467529178293 
_cell_angle_alpha                 90.33571146702816 
_cell_angle_beta                  89.8720466083556 
_cell_angle_gamma                 89.70093114929287 
loop_ 
_atom_site_label 
_atom_site_type_symbol 
_atom_site_fract_x 
_atom_site_fract_y 
_atom_site_fract_z 
_atom_site_charge 
Fe1        Fe  0.15727796  0.88221329  0.35652889     1.65800
Fe2        Fe  0.21094639  0.88917950  0.41498308     1.73200
Fe3        Fe  0.18113777  0.97780862  0.38214470     1.54400
O4          O  0.17259310  0.97771064  0.33206119    -0.81600
O5          O  0.19363981  0.92465997  0.45266944    -0.79900
O6          O  0.17254097  0.91176782  0.31187550    -0.84100
O7          O  0.12236912  0.92595089  0.35721288    -0.79000
O8          O  0.22647983  0.98227916  0.37209069    -0.80800
O9          O  0.18075553  0.84298975  0.42856475    -0.83500
C10         C  0.11641020  0.95908321  0.37398099     0.97300
C11         C  0.17253974  0.95212653  0.30765800     1.04700
O12         O  0.18394730  0.91641188  0.38357874    -1.12500
O13         O  0.22944710  0.85188187  0.37888322    -0.74900
O14         O  0.18883014  0.83165873  0.35147160    -0.78400
O15         O  0.13602515  0.97701312  0.39197925    -0.79100
C16         C  0.21624680  0.82618332  0.35977348     0.96200
O17         O  0.13916243  0.85793629  0.40148803    -0.77100
O18         O  0.24459838  0.93232423  0.40546366    -0.82300
C19         C  0.20008173  0.96316473  0.45383301     0.98800
C20         C  0.24824835  0.96448511  0.38706355     1.04700
O21         O  0.19055854  0.98819497  0.43179228    -0.77900
C22         C  0.15245251  0.84560788  0.42799544     1.03000
Fe23       Fe  0.34230971  0.61457684  0.36133578     1.65800
Fe24       Fe  0.28475012  0.60409752  0.41438007     1.73200
Fe25       Fe  0.31592313  0.51701064  0.37836402     1.54400
O26         O  0.32687219  0.52159424  0.32909388    -0.81600
O27         O  0.29904926  0.56346185  0.44966437    -0.79900
O28         O  0.32899156  0.58957408  0.31415482    -0.84100
O29         O  0.37659794  0.57005339  0.36176638    -0.79000
O30         O  0.27111631  0.51398314  0.36543478    -0.80800
O31         O  0.31442954  0.64727673  0.43424714    -0.83500
C32         C  0.38135762  0.53515328  0.37627916     0.97300
C33         C  0.32703525  0.54995060  0.30701816     1.04700
O34         O  0.31355858  0.57866303  0.38370675    -1.12500
O35         O  0.26915521  0.64646743  0.38017052    -0.74900
O36         O  0.31192295  0.66610177  0.35675995    -0.78400
O37         O  0.36052935  0.51550290  0.39107882    -0.79100
C38         C  0.28415231  0.67226071  0.36302247     0.96200
O39         O  0.35769840  0.63526945  0.40900602    -0.77100
O40         O  0.25162613  0.56340264  0.39902541    -0.82300
C41         C  0.29116823  0.52556360  0.44745766     0.98800
C42         C  0.24885694  0.53147731  0.37992266     1.04700
O43         O  0.30344690  0.50167721  0.42620934    -0.77900
C44         C  0.34272041  0.64566262  0.43516849     1.03000
Fe45       Fe  0.15622754  0.11165992  0.13107835     1.65800
Fe46       Fe  0.20884920  0.10178476  0.07204694     1.73200
Fe47       Fe  0.18162733  0.01570931  0.10904739     1.54400
O48         O  0.17100932  0.01747217  0.15853566    -0.81600
O49         O  0.19005385  0.06481008  0.03606368    -0.79900
O50         O  0.17162336  0.08427504  0.17648718    -0.84100
O51         O  0.12235739  0.06756871  0.13054400    -0.79000
O52         O  0.22608130  0.01414433  0.12118006    -0.80800
O53         O  0.17899524  0.14833013  0.05823289    -0.83500
C54         C  0.11718013  0.03463702  0.11328699     0.97300
C55         C  0.17249093  0.04423366  0.18199304     1.04700
O56         O  0.18312346  0.07665805  0.10526025    -1.12500
O57         O  0.22825009  0.14058826  0.10648269    -0.74900
O58         O  0.18799677  0.16129822  0.13505815    -0.78400
O59         O  0.13744099  0.01576685  0.09670700    -0.79100
C60         C  0.21544799  0.16600447  0.12645674     0.96200
O61         O  0.13761322  0.13401946  0.08552101    -0.77100
O62         O  0.24216348  0.05800666  0.08172542    -0.82300
C63         C  0.19674671  0.02620581  0.03521514     0.98800
C64         C  0.24680944  0.02907576  0.10308126     1.04700
O65         O  0.19372002  0.00336988  0.06066094    -0.77900
C66         C  0.15078864  0.14540901  0.05868680     1.03000
Fe67       Fe  0.33287370  0.38457045  0.13422885     1.65800
Fe68       Fe  0.27608433  0.38891027  0.07945451     1.73200
Fe69       Fe  0.30118564  0.47831022  0.11524750     1.54400
O70         O  0.31334173  0.47757194  0.16420762    -0.81600
O71         O  0.28924431  0.42744186  0.04188718    -0.79900
O72         O  0.31982465  0.41102404  0.18107264    -0.84100
O73         O  0.36447667  0.43185026  0.13131467    -0.79000
O74         O  0.25683955  0.47592250  0.12880117    -0.80800
O75         O  0.30779687  0.34603715  0.06166348    -0.83500
C76         C  0.36711093  0.46687931  0.11636580     0.97300
C77         C  0.31765389  0.45091539  0.18701248     1.04700
O78         O  0.30287441  0.41707988  0.11052511    -1.12500
O79         O  0.26134602  0.34824732  0.11524935    -0.74900
O80         O  0.30427445  0.33163137  0.14012243    -0.78400
O81         O  0.34518986  0.48441188  0.10177381    -0.79100
C82         C  0.27688940  0.32379597  0.13314333     0.96200
O83         O  0.34969119  0.36186902  0.08797228    -0.77100
O84         O  0.24069121  0.42893222  0.09158915    -0.82300
C85         C  0.28309471  0.46628156  0.04209519     0.98800
C86         C  0.23591083  0.45933367  0.11179882     1.04700
O87         O  0.28760673  0.48914796  0.06746286    -0.77900
C88         C  0.33613938  0.34825347  0.06201980     1.03000
Fe89       Fe  0.40712036  0.88919804  0.13019309     1.65800
Fe90       Fe  0.46224592  0.89861714  0.07436552     1.73200
Fe91       Fe  0.43133365  0.98551939  0.10890395     1.54400
O92         O  0.38785495  0.98387741  0.09339351    -0.81600
O93         O  0.99388215  0.94271539  0.08729534    -0.79900
O94         O  0.37233349  0.93235012  0.12670068    -0.84100
O95         O  0.42016671  0.91805106  0.17571956    -0.79000
O96         O  0.44610954  0.99747939  0.06134694    -0.80800
O97         O  0.48040234  0.86007918  0.10994319    -0.83500
C98         C  0.41876777  0.95798702  0.18123785     0.97300
C99         C  0.36719206  0.96418641  0.10833370     1.04700
O100        O  0.43432211  0.92421798  0.10550626    -1.12500
O101        O  0.43366138  0.85204036  0.05775714    -0.74900
O102        O  0.39127998  0.86392240  0.08455721    -0.78400
O103        O  0.41770446  0.98459069  0.15784053    -0.79100
C104        C  0.40536229  0.85205482  0.05827418     0.96200
O105        O  0.43920819  0.84053962  0.13681910    -0.77100
O106        O  0.44541290  0.93515257  0.03723846    -0.82300
C107        C  0.99705194  0.97207758  0.10880778     0.98800
C108        C  0.45194542  0.97368971  0.03681623     1.04700
O109        O  0.97519351  0.98835615  0.12474690    -0.77900
C110        C  0.46691952  0.83548607  0.12961252     1.03000
Fe111      Fe  0.08187032  0.61773864  0.12877940     1.65800
Fe112      Fe  0.02217260  0.60966512  0.07666145     1.73200
Fe113      Fe  0.05065727  0.52253661  0.11146285     1.54400
O114        O  0.09626134  0.51501606  0.11644932    -0.81600
O115        O  0.48717718  0.58536900  0.10543438    -0.79900
O116        O  0.11672959  0.57850167  0.11606913    -0.84100
O117        O  0.07657263  0.58214724  0.17435878    -0.79000
O118        O  0.05541129  0.51178560  0.06158561    -0.80800
O119        O  0.01765024  0.66409922  0.10366696    -0.83500
C120        C  0.06199120  0.54838509  0.18209620     0.97300
C121        C  0.11893892  0.53875123  0.11596449     1.04700
O122        O  0.05160819  0.58366935  0.10615214    -1.12500
O123        O  0.05530328  0.63402496  0.04798367    -0.74900
O124        O  0.09210366  0.65040798  0.08319503    -0.78400
O125        O  0.04577969  0.52906570  0.16130427    -0.79100
C126        C  0.08116577  0.64852053  0.05345315     0.96200
O127        O  0.05071335  0.66381701  0.14491802    -0.77100
O128        O  0.02170031  0.55900998  0.04524815    -0.82300
C129        C  0.48285968  0.54655564  0.11107064     0.98800
C130        C  0.03642641  0.52522950  0.04097039     1.04700
O131        O  0.50424787  0.52011123  0.11215095    -0.77900
C132        C  0.02805348  0.67966370  0.13023431     1.03000
Fe133      Fe  0.40523858  0.11842205  0.35931779     1.65800
Fe134      Fe  0.46291822  0.10491890  0.41245812     1.73200
Fe135      Fe  0.43234974  0.02044209  0.37437802     1.54400
O136        O  0.38850934  0.01870791  0.39012792    -0.81600
O137        O  0.99578463  0.06539259  0.39653996    -0.79900
O138        O  0.37042576  0.07515273  0.36396200    -0.84100
O139        O  0.41579646  0.09206166  0.31166829    -0.79000
O140        O  0.44757109  0.00477461  0.42066832    -0.80800
O141        O  0.47835381  0.14732077  0.37824584    -0.83500
C142        C  0.41702406  0.05257684  0.30427995     0.97300
C143        C  0.36664275  0.03995073  0.37857844     1.04700
O144        O  0.43383270  0.08156748  0.38140411    -1.12500
O145        O  0.43433311  0.14865814  0.43393879    -0.74900
O146        O  0.39158690  0.14311606  0.40647356    -0.78400
O147        O  0.41847874  0.02433981  0.32623041    -0.79100
C148        C  0.40618015  0.15258003  0.43297458     0.96200
O149        O  0.43708595  0.16708546  0.35146478    -0.77100
O150        O  0.44951541  0.06453545  0.44915674    -0.82300
C151        C  0.99896239  0.03664584  0.37457559     0.98800
C152        C  0.45334038  0.02519198  0.44690241     1.04700
O153        O  0.97681681  0.02106702  0.35887127    -0.77900
C154        C  0.46477925  0.17197904  0.35856541     1.03000
Fe155      Fe  0.09334021  0.38053189  0.35217010     1.65800
Fe156      Fe  0.03784899  0.38878047  0.40851633     1.73200
Fe157      Fe  0.06481295  0.47581120  0.37186824     1.54400
O158        O  0.10834073  0.47846328  0.38763250    -0.81600
O159        O  0.50286336  0.42746506  0.39401142    -0.79900
O160        O  0.12651521  0.42627554  0.35592168    -0.84100
O161        O  0.07937260  0.40747656  0.30620691    -0.79000
O162        O  0.04936909  0.48884944  0.41871725    -0.80800
O163        O  0.02199028  0.34686394  0.37414837    -0.83500
C164        C  0.07932582  0.44730735  0.30027727     0.97300
C165        C  0.13010635  0.45950868  0.37356447     1.04700
O166        O  0.06473526  0.41461004  0.37667251    -1.12500
O167        O  0.06883827  0.34602098  0.42696626    -0.74900
O168        O  0.11010260  0.35703118  0.39776362    -0.78400
O169        O  0.07934465  0.47448246  0.32342225    -0.79100
C170        C  0.09714912  0.34604352  0.42482972     0.96200
O171        O  0.06315629  0.32918920  0.34584543    -0.77100
O172        O  0.05214861  0.42846814  0.44506749    -0.82300
C173        C  0.49888618  0.45701343  0.37297983     0.98800
C174        C  0.04504168  0.46686633  0.44433186     1.04700
O175        O  0.52045470  0.47347307  0.35678774    -0.77900
C176        C  0.03591975  0.32253336  0.35431704     1.03000
Fe177      Fe  0.33679016  0.11218306  0.62971711     1.65800
Fe178      Fe  0.27871167  0.10710815  0.57442213     1.73200
Fe179      Fe  0.30836405  0.01660823  0.60515421     1.54400
O180        O  0.35397772  0.01071093  0.60522758    -0.81600
O181        O  0.24304370  0.07708358  0.59597099    -0.79900
O182        O  0.37262635  0.07239121  0.62056865    -0.84100
O183        O  0.32806975  0.07702200  0.67445433    -0.79000
O184        O  0.30892244  0.00856169  0.55432103    -0.80800
O185        O  0.27062530  0.15689886  0.60532173    -0.83500
C186        C  0.31826455  0.03932769  0.67960270     0.97300
C187        C  0.37589082  0.03378943  0.61287096     1.04700
O188        O  0.30792248  0.07867275  0.60357678    -1.12500
O189        O  0.31216578  0.13764095  0.54941598    -0.74900
O190        O  0.34983455  0.14558866  0.58542410    -0.78400
O191        O  0.30837734  0.01646092  0.65606252    -0.79100
C192        C  0.33853948  0.14958073  0.55600431     0.96200
O193        O  0.30529565  0.15878393  0.64458068    -0.77100
O194        O  0.27984281  0.06171528  0.53873201    -0.82300
C195        C  0.24014944  0.03813357  0.60235169     0.98800
C196        C  0.29147610  0.02594193  0.53377180     1.04700
O197        O  0.26230027  0.01319140  0.60533762    -0.77900
C198        C  0.28118944  0.17259455  0.63163133     1.03000
Fe199      Fe  0.16076894  0.38355082  0.62480640     1.65800
Fe200      Fe  0.22173605  0.38865911  0.57413976     1.73200
Fe201      Fe  0.19014497  0.47850676  0.60208861     1.54400
O202        O  0.14493764  0.48480880  0.60391032    -0.81600
O203        O  0.25543316  0.41869819  0.59907209    -0.79900
O204        O  0.12560255  0.42154832  0.61202863    -0.84100
O205        O  0.16654970  0.42109371  0.66918111    -0.79000
O206        O  0.18731285  0.48282866  0.55121200    -0.80800
O207        O  0.22812819  0.33885866  0.60515000    -0.83500
C208        C  0.17827755  0.45757878  0.67525912     0.97300
C209        C  0.12288984  0.46066605  0.60713724     1.04700
O210        O  0.19087108  0.41670622  0.60108786    -1.12500
O211        O  0.18993578  0.35861289  0.54651546    -0.74900
O212        O  0.15052058  0.34944195  0.57985094    -0.78400
O213        O  0.19153658  0.47894700  0.65297823    -0.79100
C214        C  0.16299809  0.34761920  0.55085799     0.96200
O215        O  0.19154638  0.33810174  0.64244239    -0.77100
O216        O  0.22118872  0.43405951  0.53852373    -0.82300
C217        C  0.25830056  0.45829465  0.60201948     0.98800
C218        C  0.20547662  0.46587455  0.53100405     1.04700
O219        O  0.23610485  0.48320376  0.60035620    -0.77900
C220        C  0.21617738  0.32382969  0.63090757     1.03000
Fe221      Fe  0.33733244  0.88069317  0.85910840     1.65800
Fe222      Fe  0.28182907  0.89016518  0.91526592     1.73200
Fe223      Fe  0.31213984  0.97683219  0.88099874     1.54400
O224        O  0.35615276  0.97574211  0.89615474    -0.81600
O225        O  0.24912900  0.93351716  0.90311662    -0.79900
O226        O  0.37212536  0.92449277  0.86213315    -0.84100
O227        O  0.32387787  0.90932793  0.81316939    -0.79000
O228        O  0.29757660  0.98938270  0.92851739    -0.80800
O229        O  0.26422129  0.85072325  0.87984779    -0.83500
C230        C  0.32473002  0.94946307  0.80794752     0.97300
C231        C  0.37705116  0.95650651  0.88071342     1.04700
O232        O  0.30957112  0.91565569  0.88401976    -1.12500
O233        O  0.31131707  0.84438176  0.93154156    -0.74900
O234        O  0.35365832  0.85712740  0.90529714    -0.78400
O235        O  0.32538522  0.97559208  0.83196753    -0.79100
C236        C  0.33956915  0.84641685  0.93178361     0.96200
O237        O  0.30552606  0.83065485  0.85295136    -0.77100
O238        O  0.29783194  0.92754034  0.95257321    -0.82300
C239        C  0.24595666  0.96399405  0.88285541     0.98800
C240        C  0.29108971  0.96612710  0.95284391     1.04700
O241        O  0.26778757  0.97978839  0.86668130    -0.77900
C242        C  0.27784732  0.82533963  0.86056997     1.03000
Fe243      Fe  0.15251527  0.61332660  0.85569898     1.65800
Fe244      Fe  0.20702792  0.60372901  0.91284581     1.73200
Fe245      Fe  0.18112344  0.51736939  0.87348814     1.54400
O246        O  0.13710472  0.51365746  0.88742185    -0.81600
O247        O  0.24126717  0.56297562  0.89982758    -0.79900
O248        O  0.11854356  0.56759609  0.85856265    -0.84100
O249        O  0.16671525  0.58737055  0.80911182    -0.79000
O250        O  0.19471972  0.50340152  0.92085964    -0.80800
O251        O  0.22400899  0.64597905  0.87958004    -0.83500
C252        C  0.16776742  0.54778726  0.80203962     0.97300
C253        C  0.11510833  0.53311450  0.87459474     1.04700
O254        O  0.18073597  0.57853033  0.87984655    -1.12500
O255        O  0.17635539  0.64707218  0.93106936    -0.74900
O256        O  0.13533223  0.63683284  0.90148851    -0.78400
O257        O  0.16872036  0.51992793  0.82443061    -0.79100
C258        C  0.14813368  0.64792869  0.92864210     0.96200
O259        O  0.18365320  0.66430776  0.85047257    -0.77100
O260        O  0.19163953  0.56344419  0.94835654    -0.82300
C261        C  0.24637777  0.53397471  0.87844011     0.98800
C262        C  0.19834377  0.52480727  0.94715446     1.04700
O263        O  0.22577754  0.51863547  0.86016325    -0.77900
C264        C  0.21087286  0.67053697  0.85951615     1.03000
Fe265      Fe  0.08783566  0.88005189  0.63020715     1.65800
Fe266      Fe  0.03036240  0.88906729  0.57715570     1.73200
Fe267      Fe  0.05868142  0.97570222  0.61376804     1.54400
O268        O  0.07450486  0.97280051  0.66157248    -0.81600
O269        O  0.04311655  0.92942437  0.54069467    -0.79900
O270        O  0.07482746  0.90534552  0.67717658    -0.84100
O271        O  0.12053291  0.92622195  0.62670353    -0.79000
O272        O  0.51681553  0.97738348  0.63064040    -0.80800
O273        O  0.06097100  0.84701513  0.55611250    -0.83500
C274        C  0.12377728  0.96006712  0.61014350     0.97300
C275        C  0.07479276  0.94496718  0.68402424     1.04700
O276        O  0.05838574  0.91453880  0.60784767    -1.12500
O277        O  0.01596469  0.84637818  0.61153523    -0.74900
O278        O  0.05839810  0.82849225  0.63671681    -0.78400
O279        O  0.10178567  0.97848513  0.59621899    -0.79100
C280        C  0.03084277  0.82187320  0.63006876     0.96200
O281        O  0.10329368  0.85779056  0.58336404    -0.77100
O282        O  0.49780428  0.93093162  0.59419049    -0.82300
C283        C  0.03556976  0.96760023  0.54233878     0.98800
C284        C  0.49478605  0.96116118  0.61520805     1.04700
O285        O  0.04079097  0.98975143  0.56788523    -0.77900
C286        C  0.08938465  0.84711389  0.55679019     1.03000
Fe287      Fe  0.41087782  0.60856338  0.63372181     1.65800
Fe288      Fe  0.46750653  0.60433057  0.57799582     1.73200
Fe289      Fe  0.44174575  0.51528809  0.61262865     1.54400
O290        O  0.42716584  0.51443904  0.66073224    -0.81600
O291        O  0.45572037  0.56524823  0.53948237    -0.79900
O292        O  0.42324649  0.58014559  0.67995843    -0.84100
O293        O  0.37901737  0.56193669  0.62789029    -0.79000
O294        O  0.98484203  0.51901870  0.62887364    -0.80800
O295        O  0.43620232  0.64656850  0.55971226    -0.83500
C296        C  0.37659983  0.52852137  0.61029347     0.97300
C297        C  0.42387227  0.53999882  0.68472702     1.04700
O298        O  0.44049057  0.57647701  0.60883879    -1.12500
O299        O  0.48160572  0.64578844  0.61376805    -0.74900
O300        O  0.43986306  0.66052493  0.64206801    -0.78400
O301        O  0.39879585  0.51072632  0.59633427    -0.79100
C302        C  0.46689461  0.66885606  0.63387918     0.96200
O303        O  0.39484034  0.63352028  0.58827417    -0.77100
O304        O  0.00120022  0.56495420  0.59118132    -0.82300
C305        C  0.46168280  0.52633443  0.54006942     0.98800
C306        C  0.00581486  0.53546395  0.61201079     1.04700
O307        O  0.45734994  0.50444273  0.56572710    -0.77900
C308        C  0.40793720  0.64604328  0.56168911     1.03000
Fe309      Fe  0.08722819  0.11044738  0.85655017     1.65800
Fe310      Fe  0.03265228  0.10221160  0.91324321     1.73200
Fe311      Fe  0.06189853  0.01471848  0.87893351     1.54400
O312        O  0.07346276  0.01513149  0.82933121    -0.81600
O313        O  0.05157021  0.06780153  0.95015766    -0.79900
O314        O  0.07367436  0.08184673  0.81105733    -0.84100
O315        O  0.12187740  0.06660488  0.85870391    -0.79000
O316        O  0.51691746  0.01406830  0.86796288    -0.80800
O317        O  0.06183306  0.14958316  0.92729555    -0.83500
C318        C  0.12699089  0.03496804  0.87727324     0.97300
C319        C  0.07348434  0.04170524  0.80581006     1.04700
O320        O  0.05961386  0.07590041  0.88143847    -1.12500
O321        O  0.01383233  0.13913056  0.87732077    -0.74900
O322        O  0.05516447  0.16053063  0.85153173    -0.78400
O323        O  0.10622831  0.01572610  0.89253567    -0.79100
C324        C  0.02741358  0.16548876  0.85915406     0.96200
O325        O  0.10420932  0.13382667  0.90225537    -0.77100
O326        O  0.49932133  0.05994733  0.90578048    -0.82300
C327        C  0.04506915  0.02946472  0.95217559     0.98800
C328        C  0.49552388  0.02948830  0.88523924     1.04700
O329        O  0.04888846  0.00466356  0.92768004    -0.77900
C330        C  0.09005019  0.14600621  0.92829187     1.03000
Fe331      Fe  0.40267951  0.38104155  0.86195411     1.65800
Fe332      Fe  0.45901716  0.38709373  0.91667898     1.73200
Fe333      Fe  0.42947911  0.47568427  0.88455292     1.54400
O334        O  0.41506671  0.47547052  0.83616620    -0.81600
O335        O  0.44433132  0.42441025  0.95452283    -0.79900
O336        O  0.41716080  0.40959061  0.81656586    -0.84100
O337        O  0.36950364  0.42696115  0.86539807    -0.79000
O338        O  0.97349808  0.47699204  0.86971987    -0.80800
O339        O  0.42831477  0.34333310  0.93448285    -0.83500
C340        C  0.36492741  0.45946768  0.88356902     0.97300
C341        C  0.41734524  0.44985085  0.81194264     1.04700
O342        O  0.43114699  0.41426304  0.88679298    -1.12500
O343        O  0.47473873  0.34684188  0.88062423    -0.74900
O344        O  0.43245396  0.32892266  0.85529930    -0.78400
O345        O  0.38576479  0.47616725  0.90057021    -0.79100
C346        C  0.45996446  0.32190835  0.86230588     0.96200
O347        O  0.38610776  0.35719694  0.90771084    -0.77100
O348        O  0.99298958  0.42785096  0.90309794    -0.82300
C349        C  0.45247408  0.46215115  0.95518522     0.98800
C350        C  0.99582294  0.45987383  0.88405180     1.04700
O351        O  0.44572326  0.48688889  0.93178160    -0.77900
C352        C  0.39987600  0.34492869  0.93396071     1.03000
C353        C  0.47895898  0.20543978  0.85193405    -0.12200
C354        C  0.01007099  0.20438413  0.84960156     0.04800
C355        C  0.02387080  0.24381573  0.84433762    -0.07500
C356        C  0.00666398  0.28118629  0.84509294    -0.08300
C357        C  0.47570169  0.28232640  0.85142197    -0.02800
C358        C  0.46162240  0.24262009  0.85249176     0.04000
N359        N  0.43020196  0.23942768  0.85833634     0.66500
H360        H  0.46762323  0.17554242  0.85502032     0.15400
H361        H  0.01808545  0.31120721  0.84340604     0.15100
N362        N  0.05558836  0.24706594  0.84142379     0.74200
O363        O  0.41287249  0.23233477  0.83417854    -0.39200
O364        O  0.42058121  0.23595379  0.88781601    -0.39200
O365        O  0.06722397  0.25250724  0.81307678    -0.39900
O366        O  0.07118944  0.25234351  0.86729281    -0.39900
C367        C  0.43065936  0.51291807  0.77756534    -0.12200
C368        C  0.41992499  0.47083368  0.77849101     0.04800
C369        C  0.40954706  0.45304102  0.74852369    -0.07500
C370        C  0.40986396  0.47705466  0.71903507    -0.08300
C371        C  0.42067591  0.51911245  0.71813566    -0.02800
C372        C  0.43099034  0.53688948  0.74810285     0.04000
N373        N  0.44284291  0.57861641  0.74895511     0.66500
H374        H  0.43894707  0.52773864  0.80015351     0.15400
H375        H  0.40168028  0.46227022  0.69637969     0.15100
N376        N  0.89524869  0.41228715  0.74771440     0.74200
O377        O  0.42590838  0.60928413  0.75622811    -0.39200
O378        O  0.47077547  0.58385241  0.74843504    -0.39200
O379        O  0.86719739  0.40845274  0.74720488    -0.39900
O380        O  0.91160462  0.38060208  0.74163183    -0.39900
C381        C  0.04789381  0.99845348  0.76291220    -0.12200
C382        C  0.07317042  0.02216888  0.77199592     0.04800
C383        C  0.10003777  0.01489728  0.75431672    -0.07500
C384        C  0.10090687  0.98564769  0.72774990    -0.08300
C385        C  0.07553894  0.96242600  0.71840222    -0.02800
C386        C  0.04880116  0.96914373  0.73636745     0.04000
N387        N  0.02217588  0.94720191  0.72733816     0.66500
H388        H  0.02741248  0.00196176  0.77721222     0.15400
H389        H  0.12134525  0.98232866  0.71330840     0.15100
N390        N  0.12684600  0.03628893  0.76347313     0.74200
O391        O  0.52665879  0.90295611  0.74697112    -0.39200
O392        O  0.00176330  0.96622566  0.71169156    -0.39200
O393        O  0.14938159  0.01515324  0.77244969    -0.39900
O394        O  0.12989575  0.07467908  0.75611677    -0.39900
C395        C  0.48393699  0.78506174  0.64458554    -0.12200
C396        C  0.01509887  0.78330791  0.64205863     0.04800
C397        C  0.02979358  0.74400717  0.64494625    -0.07500
C398        C  0.01295882  0.70681244  0.64696090    -0.08300
C399        C  0.48214091  0.70821093  0.64532150    -0.02800
C400        C  0.46728747  0.74756671  0.64561624     0.04000
N401        N  0.43549664  0.75006265  0.64291445     0.66500
H402        H  0.47196407  0.81475015  0.64226995     0.15400
H403        H  0.02473627  0.67680333  0.64627313     0.15100
N404        N  0.06150570  0.74060809  0.64145771     0.74200
O405        O  0.41989714  0.75557680  0.66885557    -0.39200
O406        O  0.42361208  0.75431194  0.61459599    -0.39200
O407        O  0.07724963  0.73187392  0.66659151    -0.39900
O408        O  0.07292235  0.73814974  0.61268011    -0.39900
C409        C  0.29756799  0.52964248  0.90207843    -0.12200
C410        C  0.27717701  0.51631167  0.87744917     0.04800
C411        C  0.28619839  0.48449155  0.85478660    -0.07500
C412        C  0.31461784  0.46628490  0.85766237    -0.08300
C413        C  0.33478340  0.47919496  0.88265313    -0.02800
C414        C  0.32600394  0.51171581  0.90480000     0.04000
N415        N  0.34540130  0.52679363  0.93048276     0.66500
H416        H  0.29139935  0.55394061  0.91999963     0.15400
H417        H  0.32094074  0.44197925  0.83981166     0.15100
N418        N  0.26702786  0.47033265  0.82858570     0.74200
O419        O  0.36264600  0.55721972  0.92448979    -0.39200
O420        O  0.34080747  0.51607119  0.96032256    -0.39200
O421        O  0.27073557  0.48419050  0.79942526    -0.39900
O422        O  0.25085000  0.43835872  0.83305205    -0.39900
C423        C  0.06047730  0.53306827  0.86049846    -0.12200
C424        C  0.08457983  0.51438454  0.87750902     0.04800
C425        C  0.07901190  0.47741279  0.89621585    -0.07500
C426        C  0.05030622  0.46015508  0.89722760    -0.08300
C427        C  0.02622112  0.47862864  0.88012312    -0.02800
C428        C  0.03163653  0.51584269  0.86168687     0.04000
N429        N  0.00816101  0.53709316  0.84433575     0.66500
H430        H  0.06391283  0.56142998  0.84603142     0.15400
H431        H  0.04695493  0.43202007  0.91199647     0.15100
N432        N  0.10208903  0.45684175  0.91470972     0.74200
O433        O  0.99377692  0.56629398  0.85879925    -0.39200
O434        O  0.00556269  0.53212672  0.81321709    -0.39200
O435        O  0.10390379  0.46294357  0.94578247    -0.39900
O436        O  0.11644369  0.42669471  0.90148592    -0.39900
C437        C  0.42517722  0.97498666  0.85337681    -0.12200
C438        C  0.40784012  0.97325570  0.88259614     0.04800
C439        C  0.41985563  0.98904499  0.91262909    -0.07500
C440        C  0.44825446  0.00744937  0.91268690    -0.08300
C441        C  0.46538329  0.01021230  0.88332153    -0.02800
C442        C  0.45366268  0.99327967  0.85344869     0.04000
N443        N  0.46975537  0.99603406  0.82272863     0.66500
H444        H  0.41615456  0.96315276  0.82997464     0.15400
H445        H  0.45727253  0.01903321  0.93619417     0.15100
N446        N  0.40419585  0.98443253  0.94350682     0.74200
O447        O  0.48153278  0.96319595  0.81041184    -0.39200
O448        O  0.46651460  0.02825338  0.80471548    -0.39200
O449        O  0.41054124  0.95403982  0.96247100    -0.39900
O450        O  0.38731443  0.01367962  0.95394594    -0.39900
C451        C  0.19647040  0.97882739  0.90798461    -0.12200
C452        C  0.21572388  0.98263416  0.88035910     0.04800
C453        C  0.20610105  0.00562836  0.85237406    -0.07500
C454        C  0.17758235  0.02416284  0.85249451    -0.08300
C455        C  0.15800093  0.01901937  0.87971577    -0.02800
C456        C  0.16795834  0.99677701  0.90793104     0.04000
N457        N  0.14995254  0.99371431  0.93733607     0.66500
H458        H  0.20375577  0.96252461  0.93021121     0.15400
H459        H  0.17031336  0.04122099  0.83067455     0.15100
N460        N  0.22433780  0.00865495  0.82311953     0.74200
O461        O  0.13860654  0.95876244  0.94514386    -0.39200
O462        O  0.14964272  0.02372978  0.95816890    -0.39200
O463        O  0.23030963  0.97603702  0.80609388    -0.39900
O464        O  0.23429137  0.04396952  0.81407535    -0.39900
C465        C  0.27579067  0.74741584  0.84892453    -0.12200
C466        C  0.26098378  0.78653895  0.84985131     0.04800
C467        C  0.22931240  0.78652111  0.84688307    -0.07500
C468        C  0.21329124  0.74822388  0.84650761    -0.08300
C469        C  0.22802583  0.70916863  0.84923306    -0.02800
C470        C  0.25980846  0.70917866  0.84867162     0.04000
N471        N  0.27632215  0.67046323  0.84953256     0.66500
H472        H  0.29995297  0.74630287  0.85085117     0.15400
H473        H  0.18906431  0.74933431  0.84656682     0.15100
N474        N  0.21288813  0.82527236  0.84551430     0.74200
O475        O  0.28190532  0.65103747  0.82264671    -0.39200
O476        O  0.28965518  0.65982320  0.87592229    -0.39200
O477        O  0.20595118  0.84035840  0.81749526    -0.39900
O478        O  0.20010780  0.83919621  0.87146516    -0.39900
C479        C  0.31362021  0.44994868  0.60081239    -0.12200
C480        C  0.28855708  0.47632116  0.60562267     0.04800
C481        C  0.29306282  0.52005438  0.61093391    -0.07500
C482        C  0.32191404  0.53611614  0.61136998    -0.08300
C483        C  0.34679911  0.50976862  0.60707095    -0.02800
C484        C  0.34257454  0.46621422  0.60156885     0.04000
N485        N  0.36735477  0.43794011  0.59754967     0.66500
H486        H  0.31084796  0.41647362  0.59625273     0.15400
H487        H  0.32480633  0.56969614  0.61546443     0.15100
N488        N  0.26880999  0.54894041  0.61608163     0.74200
O489        O  0.38216100  0.42625741  0.62265326    -0.39200
O490        O  0.37432487  0.42435174  0.56889693    -0.39200
O491        O  0.25600552  0.55042384  0.64415502    -0.39900
O492        O  0.26506903  0.57890306  0.59589495    -0.39900
C493        C  0.07140580  0.46258821  0.62895192    -0.12200
C494        C  0.09294094  0.47944526  0.60744563     0.04800
C495        C  0.08630453  0.51613739  0.58924252    -0.07500
C496        C  0.05831065  0.53496086  0.59258472    -0.08300
C497        C  0.03637875  0.51788758  0.61375398    -0.02800
C498        C  0.04339303  0.48156732  0.63251815     0.04000
N499        N  0.02248723  0.46336598  0.65519395     0.66500
H500        H  0.07654124  0.43487849  0.64369640     0.15400
H501        H  0.05359112  0.56258534  0.57759786     0.15100
N502        N  0.10726542  0.53371692  0.56624733     0.74200
O503        O  0.00644391  0.43298099  0.64567921    -0.39200
O504        O  0.02415957  0.47206253  0.68589911    -0.39200
O505        O  0.10611615  0.52334497  0.53583046    -0.39900
O506        O  0.12260561  0.56521956  0.57489386    -0.39900
C507        C  0.19578407  0.51189206  0.71680539    -0.12200
C508        C  0.17552033  0.47921951  0.70869875     0.04800
C509        C  0.15085688  0.47329937  0.73021441    -0.07500
C510        C  0.14766509  0.49830829  0.75923140    -0.08300
C511        C  0.16809373  0.53053138  0.76732460    -0.02800
C512        C  0.19224543  0.53729946  0.74553254     0.04000
N513        N  0.21425993  0.56837271  0.75309501     0.66500
H514        H  0.21475422  0.51787900  0.70066138     0.15400
H515        H  0.12915156  0.49207123  0.77599097     0.15100
N516        N  0.12810078  0.44344055  0.72232942     0.74200
O517        O  0.23669724  0.55849657  0.77044486    -0.39200
O518        O  0.21385661  0.60318514  0.73799419    -0.39200
O519        O  0.12711938  0.40891634  0.73779332    -0.39900
O520        O  0.10596624  0.45488057  0.70508000    -0.39900
C521        C  0.43982622  0.95367346  0.61312072    -0.12200
C522        C  0.46453434  0.97950010  0.61929393     0.04800
C523        C  0.45988742  0.02322310  0.62410946    -0.07500
C524        C  0.43104119  0.04025126  0.62146206    -0.08300
C525        C  0.40629679  0.01454735  0.61427743    -0.02800
C526        C  0.41101892  0.97048296  0.61070457     0.04000
N527        N  0.38694165  0.94204782  0.60458371     0.66500
H528        H  0.44294432  0.91998919  0.60940600     0.15400
H529        H  0.42815525  0.07402034  0.62473213     0.15100
N530        N  0.48435484  0.05118146  0.62967575     0.74200
O531        O  0.38073148  0.93155117  0.57499006    -0.39200
O532        O  0.37588972  0.92160936  0.62851587    -0.39200
O533        O  0.49557402  0.07082878  0.60542649    -0.39900
O534        O  0.49112062  0.06174990  0.65909898    -0.39900
C535        C  0.15793442  0.01536727  0.58835731    -0.12200
C536        C  0.15384638  0.97953109  0.60831973     0.04800
C537        C  0.17845993  0.96396382  0.62686001    -0.07500
C538        C  0.20597959  0.98436903  0.62523085    -0.08300
C539        C  0.20997078  0.02000609  0.60523818    -0.02800
C540        C  0.18569619  0.03526263  0.58629203     0.04000
N541        N  0.18934706  0.06884912  0.56298062     0.66500
H542        H  0.13966589  0.02755170  0.57345054     0.15400
H543        H  0.22449552  0.97195234  0.63966791     0.15100
N544        N  0.17615038  0.92749922  0.64751191     0.74200
O545        O  0.20269454  0.06181739  0.53571264    -0.39200
O546        O  0.17458354  0.10258350  0.56669675    -0.39200
O547        O  0.18634053  0.89260634  0.63713120    -0.39900
O548        O  0.16959320  0.93185819  0.67798313    -0.39900
C549        C  0.30753163  0.97657939  0.71645798    -0.12200
C550        C  0.31940267  0.01792603  0.71335642     0.04800
C551        C  0.33452867  0.03458734  0.74128863    -0.07500
C552        C  0.33702989  0.01074283  0.77079615    -0.08300
C553        C  0.32489324  0.96967041  0.77390252    -0.02800
C554        C  0.31029414  0.95265121  0.74591279     0.04000
N555        N  0.29733074  0.91163098  0.74713342     0.66500
H556        H  0.29596998  0.96209300  0.69563914     0.15400
H557        H  0.34856296  0.02494932  0.79177980     0.15100
N558        N  0.34781136  0.07544094  0.74025042     0.74200
O559        O  0.27000197  0.90783342  0.75427263    -0.39200
O560        O  0.31149543  0.88051800  0.73513152    -0.39200
O561        O  0.33401457  0.10660676  0.75269879    -0.39900
O562        O  0.37519224  0.07880342  0.73319424    -0.39900
C563        C  0.27934341  0.24831778  0.64900952    -0.12200
C564        C  0.26455393  0.20970369  0.64544748     0.04800
C565        C  0.23284214  0.20974230  0.64632403    -0.07500
C566        C  0.21677306  0.24801734  0.64658547    -0.08300
C567        C  0.23171366  0.28669132  0.64564243    -0.02800
C568        C  0.26324296  0.28660840  0.64907019     0.04000
N569        N  0.27937101  0.32541307  0.64973666     0.66500
H570        H  0.30356755  0.24910552  0.64845426     0.15400
H571        H  0.19266462  0.24730699  0.64389294     0.15100
N572        N  0.21662137  0.17113049  0.64382325     0.74200
O573        O  0.28218347  0.34523071  0.67693569    -0.39200
O574        O  0.29478824  0.33606742  0.62479447    -0.39200
O575        O  0.20788240  0.15319407  0.67008995    -0.39900
O576        O  0.20571744  0.16017240  0.61610785    -0.39900
C577        C  0.00023199  0.47712827  0.52299494    -0.12200
C578        C  0.47991446  0.50749624  0.51357535     0.04800
C579        C  0.48205281  0.52580561  0.48183607    -0.07500
C580        C  0.50549147  0.51389879  0.46090781    -0.08300
C581        C  0.02548559  0.48411050  0.47024609    -0.02800
C582        C  0.02327395  0.46516164  0.50171647     0.04000
N583        N  0.04427721  0.43397200  0.51252185     0.66500
H584        H  0.99994830  0.46368901  0.54783900     0.15400
H585        H  0.50616965  0.52723537  0.43604204     0.15100
N586        N  0.45992920  0.55481225  0.46990663     0.74200
O587        O  0.06845124  0.44532385  0.52590089    -0.39200
O588        O  0.03649669  0.39581305  0.51397574    -0.39200
O589        O  0.46794261  0.58847347  0.45589224    -0.39900
O590        O  0.43313283  0.54299792  0.46732012    -0.39900
C591        C  0.09972567  0.32983329  0.48674686    -0.12200
C592        C  0.11489904  0.33625803  0.45610597     0.04800
C593        C  0.14636294  0.33964119  0.45745240    -0.07500
C594        C  0.16130602  0.33907142  0.48833928    -0.08300
C595        C  0.14598063  0.33651296  0.51924183    -0.02800
C596        C  0.11470710  0.33036644  0.51787153     0.04000
N597        N  0.09744783  0.32681967  0.54774334     0.66500
H598        H  0.07559746  0.32693605  0.48691969     0.15400
H599        H  0.18531844  0.34343076  0.48788758     0.15100
N600        N  0.16357670  0.34675864  0.42796094     0.74200
O601        O  0.08755062  0.35971006  0.56191317    -0.39200
O602        O  0.08742440  0.29129015  0.55615586    -0.39200
O603        O  0.17179588  0.38371652  0.42099163    -0.39900
O604        O  0.17520003  0.31581376  0.41272285    -0.39900
C605        C  0.01433307  0.20753443  0.34561680    -0.12200
C606        C  0.48244886  0.20868964  0.34576993     0.04800
C607        C  0.46944438  0.24862939  0.33994109    -0.07500
C608        C  0.48762553  0.28470900  0.33874598    -0.08300
C609        C  0.01935640  0.28398239  0.34344471    -0.02800
C610        C  0.03256052  0.24354406  0.34451989     0.04000
N611        N  0.06409486  0.23859604  0.34866485     0.66500
H612        H  0.02497871  0.17710276  0.34905503     0.15400
H613        H  0.47695571  0.31545083  0.33714060     0.15100
N614        N  0.43776249  0.25374470  0.33823267     0.74200
O615        O  0.07508932  0.23832848  0.37763540    -0.39200
O616        O  0.07997679  0.22705893  0.32417349    -0.39200
O617        O  0.42362398  0.26800231  0.36316954    -0.39900
O618        O  0.42487430  0.25129858  0.31032015    -0.39900
C619        C  0.49779103  0.98459995  0.46068558    -0.12200
C620        C  0.47148952  0.00447297  0.47192900     0.04800
C621        C  0.46670292  0.01126068  0.50601133    -0.07500
C622        C  0.98806656  0.00227125  0.52875265    -0.08300
C623        C  0.01503793  0.98393303  0.51739837    -0.02800
C624        C  0.51994948  0.97288955  0.48309376     0.04000
N625        N  0.54600094  0.95137966  0.47106877     0.66500
H626        H  0.50156521  0.97926611  0.43430071     0.15400
H627        H  0.98386491  0.00611347  0.55491626     0.15100
N628        N  0.93650448  0.02449421  0.51827218     0.74200
O629        O  0.54652850  0.91158818  0.47077185    -0.39200
O630        O  0.06490315  0.97442865  0.45565703    -0.39200
O631        O  0.41740505  0.99611360  0.52018752    -0.39900
O632        O  0.93057439  0.06215802  0.52616046    -0.39900
C633        C  0.38819808  0.16210705  0.52661101    -0.12200
C634        C  0.35682368  0.16452026  0.52646316     0.04800
C635        C  0.34286668  0.17369586  0.49543528    -0.07500
C636        C  0.35913355  0.17124882  0.46526246    -0.08300
C637        C  0.39017483  0.16480597  0.46504673    -0.02800
C638        C  0.40489484  0.16455702  0.49662155     0.04000
N639        N  0.43670978  0.16795896  0.49878220     0.66500
H640        H  0.39988444  0.15749833  0.54998275     0.15400
H641        H  0.34732048  0.17458500  0.44183069     0.15100
N642        N  0.31229763  0.18697198  0.49428473     0.74200
O643        O  0.44875743  0.20352506  0.49498928    -0.39200
O644        O  0.45213522  0.13766408  0.50970597    -0.39200
O645        O  0.30529068  0.22307604  0.50530955    -0.39900
O646        O  0.29388248  0.16703783  0.47650031    -0.39900
C647        C  0.14553905  0.66287347  0.99071043    -0.12200
C648        C  0.13042393  0.65890950  0.95980312     0.04800
C649        C  0.09886458  0.65981837  0.96066677    -0.07500
C650        C  0.08360288  0.66090694  0.99146452    -0.08300
C651        C  0.09873899  0.66010457  0.02248417    -0.02800
C652        C  0.13020396  0.66323567  0.02161038     0.04000
N653        N  0.14719984  0.66388105  0.05171857     0.66500
H654        H  0.16975914  0.66298484  0.99123178     0.15400
H655        H  0.05939556  0.65974930  0.99086530     0.15100
N656        N  0.08174186  0.65766222  0.93064883     0.74200
O657        O  0.15496904  0.62955997  0.06499629    -0.39200
O658        O  0.15900904  0.69788193  0.06136692    -0.39200
O659        O  0.07421140  0.62218901  0.91903756    -0.39900
O660        O  0.06951984  0.69066764  0.91954905    -0.39900
C661        C  0.00825059  0.46445218  0.02499832    -0.12200
C662        C  0.02590306  0.49825321  0.01441670     0.04800
C663        C  0.02054863  0.51712185  0.98346121    -0.07500
C664        C  0.49732816  0.50380470  0.96708825    -0.08300
C665        C  0.47606358  0.47464401  0.97838920    -0.02800
C666        C  0.48111292  0.45292557  0.00843363     0.04000
N667        N  0.45963349  0.42408230  0.02136200     0.66500
H668        H  0.01164593  0.45101693  0.04954401     0.15400
H669        H  0.49479122  0.51909804  0.94314410     0.15100
N670        N  0.03875032  0.55124715  0.97210020     0.74200
O671        O  0.96985144  0.38445805  0.02147093    -0.39200
O672        O  0.43678111  0.43818902  0.03629062    -0.39200
O673        O  0.06685656  0.54760528  0.97190311    -0.39900
O674        O  0.53240147  0.58111737  0.96670578    -0.39900
C675        C  0.09403049  0.52309528  0.22953979    -0.12200
C676        C  0.06562382  0.52602863  0.21480485     0.04800
C677        C  0.04305126  0.49816808  0.22645359    -0.07500
C678        C  0.04918362  0.46865131  0.25163219    -0.08300
C679        C  0.07742263  0.46588419  0.26635955    -0.02800
C680        C  0.09996784  0.49365897  0.25505367     0.04000
N681        N  0.12920056  0.49207668  0.26931037     0.66500
H682        H  0.11210668  0.54249806  0.22030562     0.15400
H683        H  0.03108344  0.44954689  0.26123555     0.15100
N684        N  0.01338398  0.49985669  0.21329955     0.74200
O685        O  0.14801952  0.46559141  0.25837714    -0.39200
O686        O  0.13767023  0.52119392  0.28863952    -0.39200
O687        O  0.49439405  0.52233070  0.22074970    -0.39900
O688        O  0.99580983  0.52887376  0.22266180    -0.39900
C689        C  0.39148496  0.99807936  0.22515003    -0.12200
C690        C  0.41779412  0.97698257  0.21517319     0.04800
C691        C  0.44435957  0.98557624  0.23268303    -0.07500
C692        C  0.44419838  0.01450082  0.25949991    -0.08300
C693        C  0.41784107  0.03552246  0.26967250    -0.02800
C694        C  0.39117798  0.02630522  0.25243576     0.04000
N695        N  0.36328995  0.04347156  0.26349392     0.66500
H696        H  0.37100419  0.99300667  0.21128481     0.15400
H697        H  0.46461663  0.01907682  0.27358940     0.15100
N698        N  0.97061928  0.96413057  0.22411495     0.74200
O699        O  0.35491001  0.07906175  0.25300306    -0.39200
O700        O  0.34467463  0.01974565  0.27769070    -0.39200
O701        O  0.99066636  0.98310812  0.20798907    -0.39900
O702        O  0.97636321  0.92875408  0.23694827    -0.39900
C703        C  0.46788711  0.75927865  0.14416721    -0.12200
C704        C  0.48352420  0.79728019  0.14127535     0.04800
C705        C  0.01376279  0.79569372  0.14383959    -0.07500
C706        C  0.02875010  0.75647821  0.14459166    -0.08300
C707        C  0.01279272  0.71858090  0.14256124    -0.02800
C708        C  0.48300579  0.72040697  0.14430520     0.04000
N709        N  0.46579645  0.68260936  0.14309458     0.66500
H710        H  0.44366752  0.75931643  0.14304658     0.15400
H711        H  0.05297598  0.75579355  0.14371763     0.15100
N712        N  0.03108290  0.83346801  0.14378882     0.74200
O713        O  0.45505188  0.67057871  0.11559067    -0.39200
O714        O  0.45581768  0.66725879  0.16984396    -0.39200
O715        O  0.03772713  0.85084107  0.17117380    -0.39900
O716        O  0.04454920  0.84433879  0.11753234    -0.39900
C717        C  0.49765317  0.96104395  0.00457002    -0.12200
C718        C  0.47395470  0.98856692  0.01274998     0.04800
C719        C  0.97727435  0.03133963  0.00528088    -0.07500
C720        C  0.00293081  0.04500959  0.98907827    -0.08300
C721        C  0.02514613  0.01618403  0.97891856    -0.02800
C722        C  0.52356108  0.97607881  0.98949428     0.04000
N723        N  0.54832513  0.94816751  0.98358436     0.66500
H724        H  0.49694927  0.92807433  0.01199620     0.15400
H725        H  0.00434463  0.07814241  0.98220111     0.15100
N726        N  0.95433278  0.06126635  0.01342829     0.74200
O727        O  0.57411302  0.95807332  0.99356627    -0.39200
O728        O  0.54443851  0.91327932  0.96893777    -0.39200
O729        O  0.95899142  0.08899527  0.03550665    -0.39900
O730        O  0.93186561  0.06469404  0.99464851    -0.39900
C731        C  0.38722635  0.83534560  0.96499228    -0.12200
C732        C  0.35587499  0.83900494  0.96447895     0.04800
C733        C  0.34097913  0.84147679  0.99599426    -0.07500
C734        C  0.35738614  0.84309179  0.02602376    -0.08300
C735        C  0.38871628  0.84115971  0.02645886    -0.02800
C736        C  0.40352525  0.83546712  0.99522051     0.04000
N737        N  0.43532349  0.83117301  0.99344789     0.66500
H738        H  0.39939247  0.83314721  0.94163630     0.15400
H739        H  0.34530007  0.84727425  0.04928053     0.15100
N740        N  0.30914069  0.84480882  0.99833137     0.74200
O741        O  0.44774390  0.79756210  0.00310964    -0.39200
O742        O  0.45083408  0.85971161  0.98018927    -0.39200
O743        O  0.29343664  0.81243811  0.99331570    -0.39900
O744        O  0.29760613  0.87622171  0.01307593    -0.39900
C745        C  0.39901606  0.33392307  0.99663237    -0.12200
C746        C  0.38310684  0.33578560  0.96616626     0.04800
C747        C  0.35155110  0.33420726  0.96821005    -0.07500
C748        C  0.33698117  0.33553733  0.99956376    -0.08300
C749        C  0.35291624  0.33779427  0.02997803    -0.02800
C750        C  0.38442545  0.33458105  0.02801847     0.04000
N751        N  0.40203200  0.33137206  0.05760036     0.66500
H752        H  0.42324663  0.33349307  0.99629439     0.15400
H753        H  0.31274483  0.33642502  0.99986281     0.15100
N754        N  0.33381849  0.33084702  0.93872916     0.74200
O755        O  0.41045619  0.29552380  0.06751343    -0.39200
O756        O  0.41306359  0.36409738  0.07059083    -0.39200
O757        O  0.32483144  0.29505377  0.92928584    -0.39900
O758        O  0.32298220  0.36361892  0.92563955    -0.39900
C759        C  0.24501432  0.51703681  0.02424201    -0.12200
C760        C  0.26437759  0.48360329  0.01551930     0.04800
C761        C  0.25979877  0.46141346  0.98545468    -0.07500
C762        C  0.23593619  0.47273249  0.96504592    -0.08300
C763        C  0.21679603  0.50654627  0.97364732    -0.02800
C764        C  0.22110219  0.52806051  0.00399941     0.04000
N765        N  0.20090148  0.56032796  0.01510942     0.66500
H766        H  0.24716386  0.53325481  0.04799962     0.15400
H767        H  0.23357294  0.45641967  0.94136180     0.15100
N768        N  0.27920317  0.42758676  0.97524856     0.74200
O769        O  0.17619998  0.55011401  0.02790557    -0.39200
O770        O  0.20977197  0.59794688  0.01752996    -0.39200
O771        O  0.26848037  0.39204129  0.96770709    -0.39900
O772        O  0.30707978  0.43320284  0.97364225    -0.39900
C773        C  0.39965229  0.52708263  0.10026080    -0.12200
C774        C  0.39646686  0.48843283  0.11687801     0.04800
C775        C  0.42129124  0.47182054  0.13435609    -0.07500
C776        C  0.44869235  0.49249587  0.13317681    -0.08300
C777        C  0.45226471  0.52997209  0.11515946    -0.02800
C778        C  0.42716740  0.54788200  0.09910717     0.04000
N779        N  0.42938150  0.58563328  0.07986476     0.66500
H780        H  0.38087696  0.54081953  0.08711101     0.15400
H781        H  0.46752055  0.47864218  0.14619572     0.15100
N782        N  0.41928484  0.43395463  0.15343669     0.74200
O783        O  0.44418595  0.58521188  0.05301944    -0.39200
O784        O  0.41149662  0.61576850  0.08556347    -0.39200
O785        O  0.42853546  0.39947232  0.14126268    -0.39900
O786        O  0.41094595  0.43565300  0.18351991    -0.39900
C787        C  0.15227683  0.47911330  0.10031878    -0.12200
C788        C  0.14890543  0.51888548  0.11532199     0.04800
C789        C  0.17403849  0.53823591  0.12996498    -0.07500
C790        C  0.20174464  0.51761418  0.12938576    -0.08300
C791        C  0.20537195  0.47795462  0.11391729    -0.02800
C792        C  0.18008626  0.45883422  0.09893894     0.04000
N793        N  0.18199903  0.41925968  0.08171319     0.66500
H794        H  0.13323665  0.46395326  0.08869473     0.15400
H795        H  0.22066514  0.53330891  0.14077166     0.15100
N796        N  0.17171002  0.57822001  0.14646155     0.74200
O797        O  0.16733242  0.38833695  0.09259229    -0.39200
O798        O  0.19100536  0.41854425  0.05184169    -0.39200
O799        O  0.16656132  0.57958448  0.17741745    -0.39900
O800        O  0.18063117  0.61097625  0.13181761    -0.39900
C801        C  0.31632459  0.97088717  0.13221684    -0.12200
C802        C  0.33622983  0.97969417  0.10601727     0.04800
C803        C  0.32634310  0.00415382  0.07893698    -0.07500
C804        C  0.29722757  0.01980243  0.07878302    -0.08300
C805        C  0.27735382  0.01160266  0.10518241    -0.02800
C806        C  0.28708980  0.98644433  0.13203635     0.04000
N807        N  0.26793564  0.97693949  0.15955652     0.66500
H808        H  0.32360552  0.95233987  0.15339865     0.15400
H809        H  0.29011074  0.03814469  0.05742202     0.15100
N810        N  0.34521190  0.01241378  0.05091910     0.74200
O811        O  0.25336643  0.94295358  0.15939933    -0.39200
O812        O  0.27024158  0.99775890  0.18635537    -0.39200
O813        O  0.34414424  0.98848236  0.02567831    -0.39900
O814        O  0.35823212  0.04752153  0.04879791    -0.39900
C815        C  0.05131444  0.96159270  0.10341899    -0.12200
C816        C  0.02757752  0.98775720  0.11371241     0.04800
C817        C  0.03368006  0.02889095  0.12527532    -0.07500
C818        C  0.06306947  0.04340180  0.12510777    -0.08300
C819        C  0.08664248  0.01768088  0.11347703    -0.02800
C820        C  0.08054345  0.97603187  0.10308952     0.04000
N821        N  0.10366636  0.94768368  0.09243918     0.66500
H822        H  0.04719705  0.92956010  0.09496540     0.15400
H823        H  0.06727645  0.07547996  0.13337861     0.15100
N824        N  0.01034006  0.05705017  0.13560014     0.74200
O825        O  0.11643332  0.92440761  0.11356228    -0.39200
O826        O  0.10733164  0.94037348  0.06170828    -0.39200
O827        O  0.00617528  0.06403523  0.16629521    -0.39900
O828        O  0.99810785  0.08078566  0.11440350    -0.39900
C829        C  0.21732246  0.24083106  0.14712175    -0.12200
C830        C  0.23276329  0.20403454  0.13746383     0.04800
C831        C  0.26432695  0.20643304  0.13365075    -0.07500
C832        C  0.27895490  0.24546374  0.13632931    -0.08300
C833        C  0.26293032  0.28283507  0.14240413    -0.02800
C834        C  0.23199614  0.27987718  0.14943408     0.04000
N835        N  0.21478929  0.31672349  0.15719866     0.66500
H836        H  0.19329657  0.24003119  0.15064642     0.15400
H837        H  0.30267420  0.24690997  0.13081250     0.15100
N838        N  0.28177507  0.17002804  0.12504733     0.74200
O839        O  0.19792122  0.33231240  0.13527294    -0.39200
O840        O  0.21147704  0.32774102  0.18728677    -0.39200
O841        O  0.29159298  0.16571875  0.09566467    -0.39900
O842        O  0.29193473  0.14679268  0.14786832    -0.39900
C843        C  0.08901578  0.15095506  0.99129139    -0.12200
C844        C  0.10578701  0.15284949  0.96136600     0.04800
C845        C  0.13718595  0.15590716  0.96441335    -0.07500
C846        C  0.15077290  0.15652401  0.99621880    -0.08300
C847        C  0.13414318  0.15260392  0.02615225    -0.02800
C848        C  0.10268833  0.15008973  0.02309046     0.04000
N849        N  0.08421381  0.14437307  0.05179372     0.66500
H850        H  0.06492565  0.14774679  0.99010696     0.15400
H851        H  0.17496069  0.15787801  0.99719889     0.15100
N852        N  0.15589824  0.15677360  0.93549322     0.74200
O853        O  0.07238617  0.17606977  0.06581239    -0.39200
O854        O  0.07524947  0.10786709  0.05905758    -0.39200
O855        O  0.16592612  0.19153339  0.92529593    -0.39900
O856        O  0.16680638  0.12275923  0.92419799    -0.39900
C857        C  0.23602877  0.03913000  0.99428880    -0.12200
C858        C  0.21616400  0.01022122  0.00853301     0.04800
C859        C  0.22197203  0.96657989  0.00547169    -0.07500
C860        C  0.24825229  0.95295668  0.98989459    -0.08300
C861        C  0.26866159  0.98197587  0.97662849    -0.02800
C862        C  0.26234077  0.02550197  0.97908358     0.04000
N863        N  0.28283164  0.05639730  0.96707197     0.66500
H864        H  0.23249325  0.07278843  0.99733747     0.15400
H865        H  0.25177817  0.91938299  0.98653450     0.15100
N866        N  0.20158878  0.93589280  0.01845729     0.74200
O867        O  0.27663150  0.07703198  0.94113255    -0.39200
O868        O  0.30407193  0.06825893  0.98547671    -0.39200
O869        O  0.17383616  0.93981108  0.01364699    -0.39900
O870        O  0.21130553  0.90447686  0.03441830    -0.39900
C871        C  0.38774352  0.66751674  0.46983480    -0.12200
C872        C  0.35788837  0.65388825  0.46839685     0.04800
C873        C  0.34360937  0.64429647  0.49934908    -0.07500
C874        C  0.35982746  0.64483822  0.52946387    -0.08300
C875        C  0.39004464  0.65612326  0.53068160    -0.02800
C876        C  0.40344687  0.66994206  0.50044192     0.04000
N877        N  0.43282581  0.68738785  0.50037230     0.66500
H878        H  0.39909174  0.67629543  0.44699662     0.15400
H879        H  0.34870610  0.63468434  0.55208227     0.15100
N880        N  0.31302463  0.63137062  0.50092403     0.74200
O881        O  0.45474346  0.66525895  0.49074941    -0.39200
O882        O  0.43604756  0.72661455  0.50440095    -0.39200
O883        O  0.30662779  0.59726540  0.51534769    -0.39900
O884        O  0.29265232  0.65847499  0.49661623    -0.39900
C885        C  0.24765963  0.54068998  0.48429467    -0.12200
C886        C  0.26383125  0.51146045  0.46465682     0.04800
C887        C  0.25107081  0.47139031  0.45822279    -0.07500
C888        C  0.22509215  0.45979553  0.47487291    -0.08300
C889        C  0.21288255  0.48622083  0.49949918    -0.02800
C890        C  0.22168275  0.52859378  0.50094385     0.04000
N891        N  0.20638215  0.55813113  0.52212051     0.66500
H892        H  0.25525768  0.57287597  0.48711218     0.15400
H893        H  0.21752982  0.42742939  0.47271844     0.15100
N894        N  0.26512789  0.44084401  0.43689860     0.74200
O895        O  0.21980318  0.57518129  0.54628696    -0.39200
O896        O  0.17892054  0.56547389  0.51775411    -0.39200
O897        O  0.28529515  0.41718935  0.44852694    -0.39900
O898        O  0.25324032  0.43153356  0.40932304    -0.39900
C899        C  0.41506466  0.47290393  0.38263796    -0.12200
C900        C  0.41171573  0.51568717  0.37441519     0.04800
C901        C  0.43705668  0.53775040  0.36254703    -0.07500
C902        C  0.46487591  0.51734758  0.36042355    -0.08300
C903        C  0.46830846  0.47499729  0.36977930    -0.02800
C904        C  0.44276354  0.45245606  0.38015006     0.04000
N905        N  0.44435190  0.40846296  0.38763607     0.66500
H906        H  0.39591323  0.45471563  0.39065058     0.15400
H907        H  0.48415649  0.53542445  0.35262159     0.15100
N908        N  0.43530946  0.58121485  0.35344559     0.74200
O909        O  0.44334105  0.39660525  0.41761903    -0.39200
O910        O  0.44084948  0.38174387  0.36452740    -0.39200
O911        O  0.44079086  0.60930948  0.37498105    -0.39900
O912        O  0.43406822  0.59106919  0.32301257    -0.39900
C913        C  0.18213011  0.46553805  0.35226555    -0.12200
C914        C  0.16053862  0.47743739  0.37611205     0.04800
C915        C  0.16828409  0.50729410  0.40082735    -0.07500
C916        C  0.19685297  0.52477512  0.40091581    -0.08300
C917        C  0.21849394  0.51311879  0.37693343    -0.02800
C918        C  0.21083989  0.48280844  0.35250709     0.04000
N919        N  0.23146265  0.46993782  0.32713938     0.66500
H920        H  0.17665252  0.44293795  0.33281344     0.15400
H921        H  0.20221081  0.54712828  0.42058908     0.15100
N922        N  0.14779057  0.51948621  0.42660038     0.74200
O923        O  0.24844219  0.43874071  0.33228042    -0.39200
O924        O  0.22729162  0.48221010  0.29762513    -0.39200
O925        O  0.14783243  0.49986640  0.45390968    -0.39900
O926        O  0.13390934  0.55412427  0.42447700    -0.39900
C927        C  0.29717292  0.51089759  0.26551901    -0.12200
C928        C  0.32383453  0.53254884  0.27268384     0.04800
C929        C  0.34919734  0.52319703  0.25302180    -0.07500
C930        C  0.34751544  0.49296859  0.22710859    -0.08300
C931        C  0.32102512  0.47047008  0.22059225    -0.02800
C932        C  0.29555289  0.48037154  0.23990395     0.04000
N933        N  0.26776132  0.45988479  0.23348243     0.66500
H934        H  0.27772559  0.51636614  0.28120762     0.15400
H935        H  0.36688840  0.48794962  0.21119485     0.15100
N936        N  0.37699927  0.54351729  0.25958048     0.74200
O937        O  0.26366561  0.42273264  0.24360345    -0.39200
O938        O  0.24618833  0.48047399  0.22136928    -0.39200
O939        O  0.39684205  0.52469886  0.27624654    -0.39900
O940        O  0.38339083  0.57716856  0.24455161    -0.39900
C941        C  0.28261045  0.02157622  0.36795769    -0.12200
C942        C  0.27880728  0.98286920  0.38431405     0.04800
C943        C  0.30414777  0.96378368  0.39925589    -0.07500
C944        C  0.33206407  0.98332476  0.39750407    -0.08300
C945        C  0.33591309  0.02204580  0.38119747    -0.02800
C946        C  0.31056659  0.04127106  0.36637875     0.04000
N947        N  0.31253448  0.08096136  0.34980508     0.66500
H948        H  0.26362849  0.03725089  0.35658999     0.15400
H949        H  0.35095697  0.96763842  0.40904472     0.15100
N950        N  0.30219764  0.92441789  0.41632556     0.74200
O951        O  0.31351462  0.08196571  0.31835894    -0.39200
O952        O  0.30709290  0.11447659  0.36589025    -0.39200
O953        O  0.30920822  0.89071221  0.40125677    -0.39900
O954        O  0.29891861  0.92415573  0.44760694    -0.39900
C955        C  0.03306710  0.97764980  0.35755761    -0.12200
C956        C  0.02947658  0.01903973  0.36957756     0.04800
C957        C  0.05503730  0.04112626  0.38062088    -0.07500
C958        C  0.08270517  0.02072149  0.38201729    -0.08300
C959        C  0.08620915  0.97870173  0.37145103    -0.02800
C960        C  0.06112653  0.95762666  0.35775975     0.04000
N961        N  0.06351362  0.91602776  0.34398783     0.66500
H962        H  0.01386572  0.96025575  0.34856320     0.15400
H963        H  0.10174465  0.03841809  0.39108001     0.15100
N964        N  0.05354825  0.08474842  0.38975336     0.74200
O965        O  0.05010247  0.88600303  0.35799924    -0.39200
O966        O  0.07236393  0.91146505  0.31425415    -0.39200
O967        O  0.05548583  0.09532252  0.42007482    -0.39900
O968        O  0.05684374  0.11233607  0.36750400    -0.39900
C969        C  0.19137934  0.98651241  0.21859674    -0.12200
C970        C  0.17495551  0.02468851  0.21581387     0.04800
C971        C  0.15711970  0.03727298  0.24301772    -0.07500
C972        C  0.15573316  0.01185256  0.27169287    -0.08300
C973        C  0.17183686  0.97335523  0.27431485    -0.02800
C974        C  0.18991982  0.96099307  0.24721934     0.04000
N975        N  0.20755928  0.92337606  0.24861028     0.66500
H976        H  0.20507000  0.97576319  0.19782838     0.15400
H977        H  0.14178002  0.02244867  0.29230498     0.15100
N978        N  0.13906866  0.07448129  0.24131939     0.74200
O979        O  0.19701033  0.88928571  0.23742275    -0.39200
O980        O  0.23518022  0.92589564  0.25453705    -0.39200
O981        O  0.11197879  0.07164771  0.23295436    -0.39900
O982        O  0.14863110  0.10860592  0.25352808    -0.39900
C983        C  0.26517345  0.78858293  0.35272384    -0.12200
C984        C  0.23373256  0.78749756  0.34993635     0.04800
C985        C  0.22015457  0.74791063  0.34453461    -0.07500
C986        C  0.23746820  0.71069044  0.34601063    -0.08300
C987        C  0.26845482  0.71176558  0.35237595    -0.02800
C988        C  0.28245553  0.75148718  0.35411169     0.04000
N989        N  0.31358233  0.75484910  0.36148626     0.66500
H990        H  0.27637202  0.81851562  0.35646661     0.15400
H991        H  0.22622747  0.68052250  0.34416344     0.15100
N992        N  0.18854588  0.74451112  0.34052927     0.74200
O993        O  0.33193789  0.76156184  0.33819706    -0.39200
O994        O  0.32189750  0.75887607  0.39140304    -0.39200
O995        O  0.17775893  0.73954585  0.31171697    -0.39900
O996        O  0.17211487  0.73926032  0.36578225    -0.39900
C997        C  0.15180540  0.83524318  0.49052529    -0.12200
C998        C  0.13563331  0.83725342  0.46025130     0.04800
C999        C  0.10409706  0.83600120  0.46260064    -0.07500
C1000       C  0.08983721  0.83588149  0.49415023    -0.08300
C1001       C  0.10601415  0.83777647  0.52443587    -0.02800
C1002       C  0.13757323  0.83574799  0.52206638     0.04000
N1003       N  0.15575016  0.83473714  0.55134058     0.66500
H1004       H  0.17603210  0.83545028  0.48998070     0.15400
H1005       H  0.06561576  0.83653323  0.49472259     0.15100
N1006       N  0.08599144  0.83603330  0.43329681     0.74200
O1007       O  0.16223824  0.86872045  0.56611260    -0.39200
O1008       O  0.16978062  0.80138787  0.55853909    -0.39200
O1009       O  0.07155065  0.80335406  0.42548912    -0.39900
O1010       O  0.07984520  0.87053732  0.41930563    -0.39900
C1011       C  0.24251031  0.01070343  0.46240999    -0.12200
C1012       C  0.22529258  0.97718163  0.47446576     0.04800
C1013       C  0.23572280  0.95387418  0.50190012    -0.07500
C1014       C  0.26251137  0.96534438  0.51729558    -0.08300
C1015       C  0.27813969  0.00132154  0.50690753    -0.02800
C1016       C  0.26886067  0.02262894  0.47799259     0.04000
N1017       N  0.28429473  0.05916125  0.46625524     0.66500
H1018       H  0.23567090  0.02790324  0.44037738     0.15400
H1019       H  0.26859893  0.94986830  0.54041275     0.15100
N1020       N  0.21754469  0.92231741  0.51697350     0.74200
O1021       O  0.31209057  0.05751948  0.46098527    -0.39200
O1022       O  0.26963478  0.09114820  0.45703014    -0.39200
O1023       O  0.22633160  0.88443739  0.51746903    -0.39900
O1024       O  0.19561102  0.93354333  0.53483257    -0.39900
Fe1025     Fe  0.65742776  0.88185453  0.35805323     1.65800
Fe1026     Fe  0.71131282  0.89064496  0.41611282     1.73200
Fe1027     Fe  0.68063367  0.97856528  0.38256356     1.54400
O1028       O  0.67298384  0.97720218  0.33245789    -0.81600
O1029       O  0.69360462  0.92692953  0.45303051    -0.79900
O1030       O  0.67216746  0.91095686  0.31288722    -0.84100
O1031       O  0.62212958  0.92472606  0.35815639    -0.79000
O1032       O  0.72614331  0.98423707  0.37343314    -0.80800
O1033       O  0.68159034  0.84424627  0.43041544    -0.83500
C1034       C  0.61600199  0.95842443  0.37403377     0.97300
C1035       C  0.67244062  0.95127879  0.30831302     1.04700
O1036       O  0.68400773  0.91706261  0.38452953    -1.12500
O1037       O  0.72997240  0.85252291  0.38053225    -0.74900
O1038       O  0.68930676  0.83181631  0.35341963    -0.78400
O1039       O  0.63544618  0.97728246  0.39160546    -0.79100
C1040       C  0.71672157  0.82647976  0.36171819     0.96200
O1041       O  0.63967495  0.85793620  0.40349373    -0.77100
O1042       O  0.74472654  0.93392353  0.40611000    -0.82300
C1043       C  0.69966346  0.96559010  0.45367520     0.98800
C1044       C  0.74809386  0.96648961  0.38811900     1.04700
O1045       O  0.68870466  0.99011925  0.43220559    -0.77900
C1046       C  0.65326879  0.84603253  0.42996560     1.03000
Fe1047     Fe  0.84163663  0.61348255  0.36085812     1.65800
Fe1048     Fe  0.78422120  0.60219240  0.41392415     1.73200
Fe1049     Fe  0.81560199  0.51563507  0.37738644     1.54400
O1050       O  0.82667220  0.52067793  0.32810058    -0.81600
O1051       O  0.79880061  0.56132363  0.44893614    -0.79900
O1052       O  0.82823796  0.58879733  0.31352496    -0.84100
O1053       O  0.87598007  0.56914886  0.36099588    -0.79000
O1054       O  0.77087738  0.51237524  0.36427701    -0.80800
O1055       O  0.81373974  0.64539876  0.43404943    -0.83500
C1056       C  0.88090815  0.53437815  0.37560340     0.97300
C1057       C  0.82639041  0.54921418  0.30614240     1.04700
O1058       O  0.81302734  0.57723680  0.38305757    -1.12500
O1059       O  0.76847032  0.64495049  0.38006574    -0.74900
O1060       O  0.81123660  0.66493183  0.35683474    -0.78400
O1061       O  0.86014412  0.51451722  0.39034118    -0.79100
C1062       C  0.78352990  0.67113163  0.36334329     0.96200
O1063       O  0.85702164  0.63398857  0.40860778    -0.77100
O1064       O  0.75128909  0.56130365  0.39824382    -0.82300
C1065       C  0.79080512  0.52349117  0.44658554     0.98800
C1066       C  0.74858745  0.52951802  0.37895266     1.04700
O1067       O  0.80293386  0.49974504  0.42512017    -0.77900
C1068       C  0.84204994  0.64431467  0.43480707     1.03000
Fe1069     Fe  0.65571436  0.11194697  0.13239639     1.65800
Fe1070     Fe  0.70887975  0.10418283  0.07368660     1.73200
Fe1071     Fe  0.68175436  0.01680638  0.10917926     1.54400
O1072       O  0.67092962  0.01725823  0.15863648    -0.81600
O1073       O  0.69128741  0.06764131  0.03662307    -0.79900
O1074       O  0.67104981  0.08364459  0.17750121    -0.84100
O1075       O  0.62209093  0.06762396  0.13095602    -0.79000
O1076       O  0.72618337  0.01549267  0.12152907    -0.80800
O1077       O  0.67866544  0.15037753  0.05998732    -0.83500
C1078       C  0.61710009  0.03509152  0.11319042     0.97300
C1079       C  0.67211823  0.04349152  0.18248538     1.04700
O1080       O  0.68291434  0.07786293  0.10616663    -1.12500
O1081       O  0.72763532  0.14250266  0.10899220    -0.74900
O1082       O  0.68697432  0.16196682  0.13736125    -0.78400
O1083       O  0.63752646  0.01648155  0.09664174    -0.79100
C1084       C  0.71442515  0.16728709  0.12911182     0.96200
O1085       O  0.63728324  0.13516571  0.08705826    -0.77100
O1086       O  0.74233417  0.06091535  0.08326177    -0.82300
C1087       C  0.69773470  0.02892305  0.03559386     0.98800
C1088       C  0.74697930  0.03137308  0.10404053     1.04700
O1089       O  0.69418887  0.00573256  0.06075522    -0.77900
C1090       C  0.65045952  0.14719801  0.06039556     1.03000
Fe1091     Fe  0.83235629  0.38477083  0.13223662     1.65800
Fe1092     Fe  0.77580728  0.38852306  0.07706769     1.73200
Fe1093     Fe  0.80111130  0.47829578  0.11212031     1.54400
O1094       O  0.81385817  0.47877130  0.16096177    -0.81600
O1095       O  0.78904761  0.42662847  0.03927337    -0.79900
O1096       O  0.81934649  0.41250675  0.17868882    -0.84100
O1097       O  0.86419182  0.43176122  0.12815003    -0.79000
O1098       O  0.75691002  0.47585759  0.12626369    -0.80800
O1099       O  0.80739429  0.34548622  0.05947285    -0.83500
C1100       C  0.86695359  0.46635217  0.11253221     0.97300
C1101       C  0.81769949  0.45253473  0.18416297     1.04700
O1102       O  0.80261248  0.41695930  0.10798561    -1.12500
O1103       O  0.76100085  0.34814505  0.11289584    -0.74900
O1104       O  0.80336502  0.33238664  0.13926361    -0.78400
O1105       O  0.84500031  0.48390432  0.09799218    -0.79100
C1106       C  0.77604399  0.32451066  0.13194352     0.96200
O1107       O  0.84913313  0.36056922  0.08640679    -0.77100
O1108       O  0.74047868  0.42860615  0.08936536    -0.82300
C1109       C  0.78254239  0.46532092  0.03927648     0.98800
C1110       C  0.73580361  0.45886824  0.10975727     1.04700
O1111       O  0.78697269  0.48849451  0.06446641    -0.77900
C1112       C  0.83573908  0.34699363  0.06033052     1.03000
Fe1113     Fe  0.90644778  0.89031788  0.12992375     1.65800
Fe1114     Fe  0.96187041  0.89903876  0.07457431     1.73200
Fe1115     Fe  0.93160386  0.98628261  0.10902047     1.54400
O1116       O  0.88825798  0.98549160  0.09311233    -0.81600
O1117       O  0.49406576  0.94258854  0.08688241    -0.79900
O1118       O  0.87218211  0.93403963  0.12613357    -0.84100
O1119       O  0.91932733  0.91909121  0.17566237    -0.79000
O1120       O  0.94703250  0.99795315  0.06155205    -0.80800
O1121       O  0.97966302  0.86030749  0.11022641    -0.83500
C1122       C  0.91807650  0.95907632  0.18116417     0.97300
C1123       C  0.86738152  0.96623627  0.10805791     1.04700
O1124       O  0.93404426  0.92494790  0.10558220    -1.12500
O1125       O  0.93320739  0.85268922  0.05775426    -0.74900
O1126       O  0.89069978  0.86531372  0.08402551    -0.78400
O1127       O  0.91738278  0.98563811  0.15773327    -0.79100
C1128       C  0.90491441  0.85321725  0.05787778     0.96200
O1129       O  0.93815633  0.84121185  0.13673870    -0.77100
O1130       O  0.94512222  0.93569971  0.03750086    -0.82300
C1131       C  0.49704600  0.97242574  0.10799571     0.98800
C1132       C  0.95217905  0.97401943  0.03689396     1.04700
O1133       O  0.47513707  0.98863482  0.12393428    -0.77900
C1134       C  0.96587978  0.83581769  0.12972319     1.03000
Fe1135     Fe  0.58318041  0.61728543  0.12845482     1.65800
Fe1136     Fe  0.52249722  0.60812627  0.07804018     1.73200
Fe1137     Fe  0.55032017  0.52213291  0.11533824     1.54400
O1138       O  0.59594785  0.51381205  0.11975318    -0.81600
O1139       O  0.98676984  0.58492010  0.10262011    -0.79900
O1140       O  0.61713810  0.57673126  0.11541434    -0.84100
O1141       O  0.57927396  0.58343976  0.17483132    -0.79000
O1142       O  0.55405967  0.50814666  0.06575873    -0.80800
O1143       O  0.51891866  0.66369000  0.10385104    -0.83500
C1144       C  0.56413915  0.55095998  0.18417622     0.97300
C1145       C  0.61881500  0.53698247  0.11726690     1.04700
O1146       O  0.55210794  0.58284227  0.10763450    -1.12500
O1147       O  0.55536506  0.63075010  0.04785072    -0.74900
O1148       O  0.59250775  0.64854488  0.08209768    -0.78400
O1149       O  0.54612630  0.53206402  0.16508148    -0.79100
C1150       C  0.58125688  0.64557962  0.05258422     0.96200
O1151       O  0.55254767  0.66408413  0.14458889    -0.77100
O1152       O  0.52133522  0.55610181  0.04802616    -0.82300
C1153       C  0.98288488  0.54571705  0.10693453     0.98800
C1154       C  0.53559072  0.52174814  0.04457637     1.04700
O1155       O  0.00454384  0.51963434  0.10749922    -0.77900
C1156       C  0.52972012  0.67974053  0.13006498     1.03000
Fe1157     Fe  0.90519053  0.12044463  0.35920624     1.65800
Fe1158     Fe  0.96300948  0.10716198  0.41214771     1.73200
Fe1159     Fe  0.93253420  0.02249054  0.37431573     1.54400
O1160       O  0.88849021  0.02061012  0.38953641    -0.81600
O1161       O  0.49569151  0.06363528  0.39592863    -0.79900
O1162       O  0.87025989  0.07735613  0.36393283    -0.84100
O1163       O  0.91544010  0.09396626  0.31139109    -0.79000
O1164       O  0.94709842  0.00738968  0.42092808    -0.80800
O1165       O  0.97870242  0.14867153  0.37747233    -0.83500
C1166       C  0.91718294  0.05445721  0.30403671     0.97300
C1167       C  0.86654132  0.04206648  0.37842592     1.04700
O1168       O  0.93392073  0.08361484  0.38114728    -1.12500
O1169       O  0.93475404  0.15184329  0.43286202    -0.74900
O1170       O  0.89162208  0.14478606  0.40660070    -0.78400
O1171       O  0.91930685  0.02631094  0.32599942    -0.79100
C1172       C  0.90654436  0.15462879  0.43277458     0.96200
O1173       O  0.93722615  0.16912919  0.35138045    -0.77100
O1174       O  0.94916284  0.06745202  0.44910914    -0.82300
C1175       C  0.49862416  0.03496721  0.37381758     0.98800
C1176       C  0.95275626  0.02803300  0.44709341     1.04700
O1177       O  0.47637566  0.01926780  0.35838775    -0.77900
C1178       C  0.96504941  0.17370800  0.35815792     1.03000
Fe1179     Fe  0.59281987  0.37852923  0.35120123     1.65800
Fe1180     Fe  0.53719712  0.38658211  0.40767665     1.73200
Fe1181     Fe  0.56467518  0.47367171  0.37170337     1.54400
O1182       O  0.60824197  0.47571564  0.38724261    -0.81600
O1183       O  0.00353423  0.42937505  0.39476758    -0.79900
O1184       O  0.62614045  0.42411745  0.35485286    -0.84100
O1185       O  0.57849044  0.40577754  0.30536712    -0.79000
O1186       O  0.54970418  0.48637111  0.41871452    -0.80800
O1187       O  0.52149223  0.34512235  0.37291057    -0.83500
C1188       C  0.57750638  0.44569434  0.29981868     0.97300
C1189       C  0.62990879  0.45701666  0.37282901     1.04700
O1190       O  0.56432076  0.41251759  0.37610673    -1.12500
O1191       O  0.56828903  0.34369354  0.42595548    -0.74900
O1192       O  0.60959888  0.35468897  0.39670083    -0.78400
O1193       O  0.57865876  0.47253326  0.32316086    -0.79100
C1194       C  0.59662306  0.34354088  0.42373824     0.96200
O1195       O  0.56272382  0.32718272  0.34488672    -0.77100
O1196       O  0.55108752  0.42568975  0.44488182    -0.82300
C1197       C  0.99919833  0.45837397  0.37339375     0.98800
C1198       C  0.54501275  0.46445409  0.44428158     1.04700
O1199       O  0.02057143  0.47475486  0.35677269    -0.77900
C1200       C  0.53546702  0.32064468  0.35324651     1.03000
Fe1201     Fe  0.83783852  0.11218926  0.62995174     1.65800
Fe1202     Fe  0.78200792  0.10765033  0.57249727     1.73200
Fe1203     Fe  0.80987562  0.01771856  0.60595869     1.54400
O1204       O  0.85493363  0.01367255  0.59652844    -0.81600
O1205       O  0.74708251  0.06781474  0.58356723    -0.79900
O1206       O  0.87181783  0.06812052  0.62600288    -0.84100
O1207       O  0.82496404  0.08204391  0.67558241    -0.79000
O1208       O  0.80096192  0.00833480  0.55674590    -0.80800
O1209       O  0.76646756  0.14752114  0.60907839    -0.83500
C1210       C  0.82115888  0.04215609  0.68018873     0.97300
C1211       C  0.87584512  0.03286208  0.61146926     1.04700
O1212       O  0.80959499  0.07922286  0.60327043    -1.12500
O1213       O  0.81317648  0.15078708  0.55592170    -0.74900
O1214       O  0.85450936  0.13939974  0.58505897    -0.78400
O1215       O  0.81769982  0.01697624  0.65596368    -0.79100
C1216       C  0.84139740  0.15218747  0.55848096     0.96200
O1217       O  0.80723121  0.16225606  0.63852053    -0.77100
O1218       O  0.79410677  0.07031396  0.53270549    -0.82300
C1219       C  0.74313444  0.03510333  0.60109450     0.98800
C1220       C  0.79367369  0.03043288  0.53190330     1.04700
O1221       O  0.76459077  0.01617497  0.61557685    -0.77900
C1222       C  0.78008458  0.16969690  0.63046373     1.03000
Fe1223     Fe  0.66107318  0.38180886  0.62302637     1.65800
Fe1224     Fe  0.72168853  0.38694846  0.57190058     1.73200
Fe1225     Fe  0.69043450  0.47649133  0.60020808     1.54400
O1226       O  0.64528217  0.48289751  0.60369770    -0.81600
O1227       O  0.75557806  0.41678802  0.59682651    -0.79900
O1228       O  0.62581638  0.41935928  0.60972596    -0.84100
O1229       O  0.66679537  0.42014649  0.66708840    -0.79000
O1230       O  0.68634172  0.48052496  0.54942935    -0.80800
O1231       O  0.72793329  0.33694796  0.60267287    -0.83500
C1232       C  0.67929971  0.45613158  0.67316305     0.97300
C1233       C  0.62316280  0.45870687  0.60607324     1.04700
O1234       O  0.69103843  0.41481488  0.59910454    -1.12500
O1235       O  0.68971335  0.35713946  0.54444263    -0.74900
O1236       O  0.65088612  0.34681480  0.57841314    -0.78400
O1237       O  0.69330062  0.47663845  0.65095471    -0.79100
C1238       C  0.66301793  0.34532331  0.54921560     0.96200
O1239       O  0.69211900  0.33703140  0.64094039    -0.77100
O1240       O  0.72090042  0.43273630  0.53656888    -0.82300
C1241       C  0.75847747  0.45643969  0.59926416     0.98800
C1242       C  0.70469021  0.46411821  0.52912978     1.04700
O1243       O  0.73630337  0.48126847  0.59700152    -0.77900
C1244       C  0.71642698  0.32238843  0.62886477     1.03000
Fe1245     Fe  0.83657354  0.88117757  0.85822358     1.65800
Fe1246     Fe  0.78147296  0.89098781  0.91485790     1.73200
Fe1247     Fe  0.81198045  0.97751773  0.88043317     1.54400
O1248       O  0.85614596  0.97582965  0.89513074    -0.81600
O1249       O  0.74887123  0.93444545  0.90275867    -0.79900
O1250       O  0.87147759  0.92458186  0.86076054    -0.84100
O1251       O  0.82294310  0.91007700  0.81233890    -0.79000
O1252       O  0.79779054  0.99031174  0.92803508    -0.80800
O1253       O  0.76357680  0.85128316  0.87967594    -0.83500
C1254       C  0.82414295  0.95026356  0.80729089     0.97300
C1255       C  0.87678260  0.95635724  0.87940405     1.04700
O1256       O  0.80910527  0.91633449  0.88339130    -1.12500
O1257       O  0.81102025  0.84521088  0.93107917    -0.74900
O1258       O  0.85318956  0.85765742  0.90436886    -0.78400
O1259       O  0.82489072  0.97625171  0.83137378    -0.79100
C1260       C  0.83928806  0.84712491  0.93104336     0.96200
O1261       O  0.80473190  0.83120251  0.85252702    -0.77100
O1262       O  0.79761280  0.92846111  0.95209624    -0.82300
C1263       C  0.74572218  0.96515098  0.88270786     0.98800
C1264       C  0.79120298  0.96717748  0.95238678     1.04700
O1265       O  0.76752592  0.98100177  0.86651358    -0.77900
C1266       C  0.77716289  0.82572602  0.86049268     1.03000
Fe1267     Fe  0.65261194  0.61213178  0.85354177     1.65800
Fe1268     Fe  0.70652029  0.60137999  0.91116850     1.73200
Fe1269     Fe  0.68143639  0.51590158  0.87016116     1.54400
O1270       O  0.63731333  0.51152671  0.88336093    -0.81600
O1271       O  0.74100770  0.56098027  0.89818232    -0.79900
O1272       O  0.61876559  0.56608243  0.85519994    -0.84100
O1273       O  0.66728932  0.58731701  0.80663389    -0.79000
O1274       O  0.69453854  0.50083643  0.91746602    -0.80800
O1275       O  0.72389435  0.64440063  0.87885918    -0.83500
C1276       C  0.66861791  0.54784930  0.79910733     0.97300
C1277       C  0.61535357  0.53112328  0.87058940     1.04700
O1278       O  0.68072644  0.57690213  0.87740182    -1.12500
O1279       O  0.67574006  0.64447907  0.92940405    -0.74900
O1280       O  0.63485014  0.63437984  0.89961955    -0.78400
O1281       O  0.66961885  0.51958792  0.82113880    -0.79100
C1282       C  0.64753371  0.64517109  0.92694298     0.96200
O1283       O  0.68376792  0.66342581  0.84962318    -0.77100
O1284       O  0.69041306  0.56023853  0.94562060    -0.82300
C1285       C  0.74649087  0.53281595  0.87621485     0.98800
C1286       C  0.69752157  0.52176985  0.94408663     1.04700
O1287       O  0.72615453  0.51791331  0.85738324    -0.77900
C1288       C  0.71089684  0.66954253  0.85913590     1.03000
Fe1289     Fe  0.58854699  0.88157362  0.63188827     1.65800
Fe1290     Fe  0.53143600  0.88975062  0.57819802     1.73200
Fe1291     Fe  0.56014812  0.97709556  0.61340185     1.54400
O1292       O  0.57589322  0.97539713  0.66127765    -0.81600
O1293       O  0.54455895  0.92900970  0.54114465    -0.79900
O1294       O  0.57540898  0.90852953  0.67834764    -0.84100
O1295       O  0.62162758  0.92727240  0.62794489    -0.79000
O1296       O  0.01556041  0.97481245  0.63124209    -0.80800
O1297       O  0.56202100  0.84704703  0.55792898    -0.83500
C1298       C  0.62521890  0.96054741  0.61074450     0.97300
C1299       C  0.57599387  0.94839679  0.68436504     1.04700
O1300       O  0.55942605  0.91575372  0.60867907    -1.12500
O1301       O  0.51671337  0.84781449  0.61301807    -0.74900
O1302       O  0.55885546  0.83015418  0.63884722    -0.78400
O1303       O  0.60346313  0.97873074  0.59613538    -0.79100
C1304       C  0.53138646  0.82334166  0.63179162     0.96200
O1305       O  0.60415605  0.85810212  0.58546978    -0.77100
O1306       O  0.99668465  0.92955717  0.59378712    -0.82300
C1307       C  0.53710580  0.96722935  0.54206373     0.98800
C1308       C  0.99363806  0.95911170  0.61534595     1.04700
O1309       O  0.54247973  0.99008984  0.56718036    -0.77900
C1310       C  0.59042946  0.84717074  0.55883130     1.03000
Fe1311     Fe  0.90988546  0.60829640  0.63358999     1.65800
Fe1312     Fe  0.96652274  0.60448870  0.57789894     1.73200
Fe1313     Fe  0.94149727  0.51543154  0.61281856     1.54400
O1314       O  0.92677378  0.51440433  0.66085427    -0.81600
O1315       O  0.95474166  0.56536640  0.53937324    -0.79900
O1316       O  0.92233118  0.58013327  0.67991941    -0.84100
O1317       O  0.87832488  0.56120873  0.62754626    -0.79000
O1318       O  0.48519804  0.51787203  0.62851820    -0.80800
O1319       O  0.93521239  0.64677736  0.55993174    -0.83500
C1320       C  0.87630569  0.52769000  0.60996559     0.97300
C1321       C  0.92326004  0.54001986  0.68476295     1.04700
O1322       O  0.93969511  0.57650068  0.60881734    -1.12500
O1323       O  0.98046296  0.64560945  0.61378253    -0.74900
O1324       O  0.93873524  0.66046400  0.64209090    -0.78400
O1325       O  0.89872960  0.51008021  0.59635603    -0.79100
C1326       C  0.96584029  0.66858405  0.63402581     0.96200
O1327       O  0.89378067  0.63301431  0.58802362    -0.77100
O1328       O  0.50197981  0.56444818  0.59150475    -0.82300
C1329       C  0.96094947  0.52651744  0.54007369     0.98800
C1330       C  0.50632477  0.53439463  0.61192998     1.04700
O1331       O  0.95716661  0.50481083  0.56594210    -0.77900
C1332       C  0.90696838  0.64570871  0.56154506     1.03000
Fe1333     Fe  0.58741017  0.11253312  0.85827352     1.65800
Fe1334     Fe  0.53257805  0.10484870  0.91485816     1.73200
Fe1335     Fe  0.56162851  0.01704043  0.88086565     1.54400
O1336       O  0.57272802  0.01731602  0.83122143    -0.81600
O1337       O  0.55124609  0.07073798  0.95209556    -0.79900
O1338       O  0.57394179  0.08390578  0.81273398    -0.84100
O1339       O  0.62187473  0.06855407  0.86035746    -0.79000
O1340       O  0.01728406  0.01154547  0.86578765    -0.80800
O1341       O  0.56190514  0.15221352  0.92863625    -0.83500
C1342       C  0.62687898  0.03659999  0.87858245     0.97300
C1343       C  0.57317163  0.04374517  0.80760282     1.04700
O1344       O  0.55961711  0.07820909  0.88324450    -1.12500
O1345       O  0.51399955  0.14141772  0.87860320    -0.74900
O1346       O  0.55552506  0.16271884  0.85313199    -0.78400
O1347       O  0.60611326  0.01753487  0.89398825    -0.79100
C1348       C  0.52773131  0.16768066  0.86050084     0.96200
O1349       O  0.60439515  0.13597324  0.90400702    -0.77100
O1350       O  0.99966358  0.05716646  0.90383483    -0.82300
C1351       C  0.54507873  0.03229061  0.95420075     0.98800
C1352       C  0.99591476  0.02675884  0.88323306     1.04700
O1353       O  0.54900257  0.00736746  0.92978723    -0.77900
C1354       C  0.59010887  0.14845815  0.92987202     1.03000
Fe1355     Fe  0.90289483  0.37979259  0.86112830     1.65800
Fe1356     Fe  0.95926747  0.38537217  0.91615314     1.73200
Fe1357     Fe  0.92937338  0.47433649  0.88453087     1.54400
O1358       O  0.91641315  0.47443195  0.83565998    -0.81600
O1359       O  0.94500395  0.42222367  0.95460958    -0.79900
O1360       O  0.91747428  0.40850564  0.81586543    -0.84100
O1361       O  0.86957437  0.42556238  0.86405568    -0.79000
O1362       O  0.47319931  0.47731023  0.86828861    -0.80800
O1363       O  0.92842749  0.34138451  0.93333459    -0.83500
C1364       C  0.86485344  0.45813063  0.88206415     0.97300
C1365       C  0.91804514  0.44879292  0.81137603     1.04700
O1366       O  0.93129117  0.41292144  0.88639210    -1.12500
O1367       O  0.97498962  0.34556017  0.87961653    -0.74900
O1368       O  0.93256996  0.32757349  0.85465556    -0.78400
O1369       O  0.88545907  0.47457628  0.89944055    -0.79100
C1370       C  0.96008147  0.32047422  0.86154308     0.96200
O1371       O  0.88620479  0.35584583  0.90673735    -0.77100
O1372       O  0.49271290  0.42931510  0.90271513    -0.82300
C1373       C  0.95195720  0.46052524  0.95521331     0.98800
C1374       C  0.49558836  0.46028874  0.88257909     1.04700
O1375       O  0.94393122  0.48513524  0.93224820    -0.77900
C1376       C  0.89998870  0.34322432  0.93286920     1.03000
C1377       C  0.97855974  0.20366538  0.85189838    -0.12200
C1378       C  0.51050138  0.20647458  0.85067927     0.04800
C1379       C  0.52430343  0.24606101  0.84628368    -0.07500
C1380       C  0.50692924  0.28324239  0.84666644    -0.08300
C1381       C  0.97556301  0.28059534  0.85079139    -0.02800
C1382       C  0.96137753  0.24099963  0.85262617     0.04000
N1383       N  0.93007247  0.23812757  0.85933133     0.66500
H1384       H  0.96717070  0.17392422  0.85559461     0.15400
H1385       H  0.51828831  0.31336585  0.84566014     0.15100
N1386       N  0.55609187  0.24965399  0.84500003     0.74200
O1387       O  0.91222126  0.23062465  0.83573104    -0.39200
O1388       O  0.92105634  0.23535258  0.88909714    -0.39200
O1389       O  0.56881800  0.25596103  0.81736345    -0.39900
O1390       O  0.57061523  0.25441519  0.87170539    -0.39900
C1391       C  0.93254429  0.51117993  0.77688241    -0.12200
C1392       C  0.92043053  0.46987569  0.77796130     0.04800
C1393       C  0.90816005  0.45339550  0.74842540    -0.07500
C1394       C  0.90794451  0.47797459  0.71922075    -0.08300
C1395       C  0.92017479  0.51920220  0.71816216    -0.02800
C1396       C  0.93250329  0.53561232  0.74765077     0.04000
N1397       N  0.94630852  0.57612367  0.74807366     0.66500
H1398       H  0.94227475  0.52493957  0.79915871     0.15400
H1399       H  0.89839059  0.46423400  0.69683236     0.15100
N1400       N  0.39790465  0.41118065  0.74763416     0.74200
O1401       O  0.93149203  0.60797927  0.75759134    -0.39200
O1402       O  0.97429462  0.57880273  0.74487095    -0.39200
O1403       O  0.36999933  0.40567071  0.74713182    -0.39900
O1404       O  0.41518840  0.38054805  0.74137219    -0.39900
C1405       C  0.55019872  0.99408080  0.76713652    -0.12200
C1406       C  0.57270011  0.02394043  0.77383145     0.04800
C1407       C  0.59781635  0.02470206  0.75259781    -0.07500
C1408       C  0.59963860  0.99677371  0.72521571    -0.08300
C1409       C  0.57700985  0.96715159  0.71840915    -0.02800
C1410       C  0.55199875  0.96618294  0.73974318     0.04000
N1411       N  0.52763734  0.93849286  0.73300133     0.66500
H1412       H  0.53112780  0.99196819  0.78387310     0.15400
H1413       H  0.61858794  0.99918719  0.70835001     0.15100
N1414       N  0.62211039  0.05257852  0.75912294     0.74200
O1415       O  0.01708581  0.91134276  0.73955569    -0.39200
O1416       O  0.50493584  0.95218284  0.71779974    -0.39200
O1417       O  0.64679308  0.03769081  0.76882125    -0.39900
O1418       O  0.62083031  0.09008319  0.74883036    -0.39900
C1419       C  0.98367732  0.78431531  0.64515748    -0.12200
C1420       C  0.51547274  0.78455777  0.64337444     0.04800
C1421       C  0.53022484  0.74540281  0.64728931    -0.07500
C1422       C  0.51355051  0.70790155  0.64816568    -0.08300
C1423       C  0.98145754  0.70752218  0.64567275    -0.02800
C1424       C  0.96685298  0.74703383  0.64706642     0.04000
N1425       N  0.93498699  0.74993585  0.64664214     0.66500
H1426       H  0.97185492  0.81422316  0.64373465     0.15400
H1427       H  0.52548377  0.67801388  0.64832166     0.15100
N1428       N  0.56209109  0.74252175  0.64661574     0.74200
O1429       O  0.92091320  0.75428318  0.67377312    -0.39200
O1430       O  0.92160316  0.75607407  0.61940163    -0.39200
O1431       O  0.57612998  0.73634022  0.67343094    -0.39900
O1432       O  0.57543699  0.73774923  0.61906631    -0.39900
C1433       C  0.79775359  0.52912140  0.89967075    -0.12200
C1434       C  0.77737175  0.51549849  0.87515316     0.04800
C1435       C  0.78648097  0.48367222  0.85252645    -0.07500
C1436       C  0.81480119  0.46526014  0.85567180    -0.08300
C1437       C  0.83486224  0.47821818  0.88072047    -0.02800
C1438       C  0.82618424  0.51123594  0.90249127     0.04000
N1439       N  0.84577277  0.52714415  0.92768701     0.66500
H1440       H  0.79161774  0.55371781  0.91734851     0.15400
H1441       H  0.82114924  0.44080083  0.83796492     0.15100
N1442       N  0.76756288  0.46984801  0.82599044     0.74200
O1443       O  0.86338863  0.55680018  0.92070492    -0.39200
O1444       O  0.84106559  0.51811033  0.95786076    -0.39200
O1445       O  0.77190167  0.48356445  0.79689519    -0.39900
O1446       O  0.75115277  0.43803841  0.83011421    -0.39900
C1447       C  0.56060521  0.53165506  0.85692436    -0.12200
C1448       C  0.58485523  0.51222530  0.87315132     0.04800
C1449       C  0.57939554  0.47463437  0.89112096    -0.07500
C1450       C  0.55049053  0.45822482  0.89303935    -0.08300
C1451       C  0.52615812  0.47787172  0.87725352    -0.02800
C1452       C  0.53161892  0.51496922  0.85868452     0.04000
N1453       N  0.50806758  0.53660044  0.84175146     0.66500
H1454       H  0.56402536  0.56022568  0.84271327     0.15400
H1455       H  0.54720188  0.42974655  0.90740931     0.15100
N1456       N  0.60282179  0.45244096  0.90782446     0.74200
O1457       O  0.49459430  0.56669441  0.85615340    -0.39200
O1458       O  0.50455305  0.53088133  0.81082355    -0.39200
O1459       O  0.60554434  0.45616440  0.93903483    -0.39900
O1460       O  0.61670302  0.42330135  0.89268384    -0.39900
C1461       C  0.92521514  0.97282679  0.85188979    -0.12200
C1462       C  0.90775983  0.97233392  0.88109263     0.04800
C1463       C  0.91996862  0.98818455  0.91097413    -0.07500
C1464       C  0.94860420  0.00575338  0.91088978    -0.08300
C1465       C  0.96581949  0.00744488  0.88151232    -0.02800
C1466       C  0.95402808  0.99006745  0.85185050     0.04000
N1467       N  0.97040184  0.99128700  0.82122891     0.66500
H1468       H  0.91611864  0.96071175  0.82865518     0.15400
H1469       H  0.95765748  0.01760216  0.93423310     0.15100
N1470       N  0.90422583  0.98455511  0.94188658     0.74200
O1471       O  0.98422156  0.95872197  0.81134251    -0.39200
O1472       O  0.96588068  0.02114247  0.80113634    -0.39200
O1473       O  0.91001287  0.95417701  0.96108197    -0.39900
O1474       O  0.88813376  0.01472865  0.95222362    -0.39900
C1475       C  0.69656268  0.98029608  0.90841889    -0.12200
C1476       C  0.71553123  0.98394745  0.88053559     0.04800
C1477       C  0.70562127  0.00675889  0.85258487    -0.07500
C1478       C  0.67702984  0.02505251  0.85292314    -0.08300
C1479       C  0.65779097  0.02022823  0.88049439    -0.02800
C1480       C  0.66805479  0.99822524  0.90866856     0.04000
N1481       N  0.65037086  0.99542067  0.93832356     0.66500
H1482       H  0.70408257  0.96412629  0.93062257     0.15400
H1483       H  0.66945926  0.04176879  0.83104368     0.15100
N1484       N  0.72368567  0.00998581  0.82322157     0.74200
O1485       O  0.63843324  0.96081492  0.94598776    -0.39200
O1486       O  0.65087978  0.02514122  0.95940608    -0.39200
O1487       O  0.72940571  0.97753553  0.80590339    -0.39900
O1488       O  0.73389642  0.04528407  0.81449616    -0.39900
C1489       C  0.77559115  0.74754052  0.85038199    -0.12200
C1490       C  0.76054248  0.78647923  0.85032198     0.04800
C1491       C  0.72893277  0.78597100  0.84681468    -0.07500
C1492       C  0.71318326  0.74741655  0.84630646    -0.08300
C1493       C  0.72810001  0.70856375  0.84974280    -0.02800
C1494       C  0.75989921  0.70907796  0.85034096     0.04000
N1495       N  0.77672508  0.67074835  0.85277900     0.66500
H1496       H  0.79970886  0.74680895  0.85299479     0.15400
H1497       H  0.68896012  0.74819361  0.84564249     0.15100
N1498       N  0.71227945  0.82448040  0.84494413     0.74200
O1499       O  0.78433569  0.65128288  0.82653215    -0.39200
O1500       O  0.78855021  0.66083350  0.88022382    -0.39200
O1501       O  0.70523688  0.83888887  0.81673454    -0.39900
O1502       O  0.69941242  0.83876539  0.87072008    -0.39900
C1503       C  0.81387861  0.44848081  0.59917071    -0.12200
C1504       C  0.78863680  0.47471186  0.60318099     0.04800
C1505       C  0.79288515  0.51855324  0.60839249    -0.07500
C1506       C  0.82165181  0.53481272  0.60955058    -0.08300
C1507       C  0.84668514  0.50861511  0.60616242    -0.02800
C1508       C  0.84275570  0.46497750  0.60072697     0.04000
N1509       N  0.86773896  0.43686785  0.59764804     0.66500
H1510       H  0.81130131  0.41494682  0.59474371     0.15400
H1511       H  0.82435852  0.56844306  0.61355568     0.15100
N1512       N  0.76847035  0.54735876  0.61289128     0.74200
O1513       O  0.88237300  0.42629513  0.62318401    -0.39200
O1514       O  0.87541645  0.42295629  0.56931485    -0.39200
O1515       O  0.75432428  0.54763541  0.64017055    -0.39900
O1516       O  0.76587035  0.57836993  0.59348384    -0.39900
C1517       C  0.57130990  0.45962250  0.62703418    -0.12200
C1518       C  0.59324147  0.47763170  0.60665557     0.04800
C1519       C  0.58701151  0.51549240  0.58981182    -0.07500
C1520       C  0.55911501  0.53449897  0.59351290    -0.08300
C1521       C  0.53678469  0.51634204  0.61354302    -0.02800
C1522       C  0.54331196  0.47864031  0.63081077     0.04000
N1523       N  0.52186159  0.45891653  0.65199206     0.66500
H1524       H  0.57608989  0.43090237  0.64068719     0.15400
H1525       H  0.55476241  0.56313540  0.57960842     0.15100
N1526       N  0.60827853  0.53406676  0.56768826     0.74200
O1527       O  0.50607250  0.42925836  0.64065926    -0.39200
O1528       O  0.52281741  0.46538340  0.68306999    -0.39200
O1529       O  0.60816030  0.52405111  0.53716649    -0.39900
O1530       O  0.62320508  0.56555592  0.57724168    -0.39900
C1531       C  0.69712737  0.51058360  0.71447347    -0.12200
C1532       C  0.67651161  0.47833634  0.70637217     0.04800
C1533       C  0.65152808  0.47342562  0.72757211    -0.07500
C1534       C  0.64820334  0.49918879  0.75613700    -0.08300
C1535       C  0.66898740  0.53092034  0.76430874    -0.02800
C1536       C  0.69363503  0.53648334  0.74295429     0.04000
N1537       N  0.71619798  0.56668229  0.75076557     0.66500
H1538       H  0.71642319  0.51569210  0.69861649     0.15400
H1539       H  0.62941656  0.49366224  0.77268135     0.15100
N1540       N  0.62875420  0.44347150  0.72000540     0.74200
O1541       O  0.73701528  0.55690590  0.77049321    -0.39200
O1542       O  0.71825792  0.59984555  0.73367152    -0.39200
O1543       O  0.62728839  0.40970571  0.73643308    -0.39900
O1544       O  0.60703711  0.45429132  0.70187630    -0.39900
C1545       C  0.93872143  0.95195353  0.61346830    -0.12200
C1546       C  0.96357666  0.97766713  0.61931050     0.04800
C1547       C  0.95932747  0.02158553  0.62329343    -0.07500
C1548       C  0.93067110  0.03888942  0.62025332    -0.08300
C1549       C  0.90587116  0.01327812  0.61333234    -0.02800
C1550       C  0.91008253  0.96918363  0.61061117     0.04000
N1551       N  0.88551817  0.94124574  0.60565499     0.66500
H1552       H  0.94161419  0.91812784  0.61045395     0.15400
H1553       H  0.92796144  0.07280322  0.62267680     0.15100
N1554       N  0.98403426  0.04940871  0.62798806     0.74200
O1555       O  0.87994762  0.92751802  0.57672548    -0.39200
O1556       O  0.87325903  0.92429647  0.63055776    -0.39200
O1557       O  0.99564954  0.06720261  0.60307183    -0.39900
O1558       O  0.99042828  0.06212272  0.65698768    -0.39900
C1559       C  0.66109165  0.01043306  0.58471602    -0.12200
C1560       C  0.65550159  0.97934521  0.60867225     0.04800
C1561       C  0.67883792  0.96772226  0.63069171    -0.07500
C1562       C  0.70685639  0.98669782  0.62801489    -0.08300
C1563       C  0.71252288  0.01756685  0.60391448    -0.02800
C1564       C  0.68911453  0.02946898  0.58207438     0.04000
N1565       N  0.69348589  0.05983563  0.55631841     0.66500
H1566       H  0.64367642  0.01982328  0.56746168     0.15400
H1567       H  0.72428494  0.97719122  0.64521677     0.15100
N1568       N  0.67446309  0.93746391  0.65652987     0.74200
O1569       O  0.70290897  0.04785797  0.52811102    -0.39200
O1570       O  0.68260201  0.09643213  0.55961514    -0.39200
O1571       O  0.68551494  0.90094386  0.65338561    -0.39900
O1572       O  0.66505557  0.94958659  0.68471918    -0.39900
C1573       C  0.80612564  0.98164333  0.71696059    -0.12200
C1574       C  0.82086448  0.02103803  0.71389044     0.04800
C1575       C  0.83782346  0.03500713  0.74130410    -0.07500
C1576       C  0.83962706  0.01020881  0.77039588    -0.08300
C1577       C  0.82486106  0.97086375  0.77344982    -0.02800
C1578       C  0.80802265  0.95679284  0.74601321     0.04000
N1579       N  0.79175683  0.91821614  0.74755595     0.66500
H1580       H  0.79288134  0.96967742  0.69638301     0.15400
H1581       H  0.85278914  0.02213565  0.79106038     0.15100
N1582       N  0.85428044  0.07342888  0.73971075     0.74200
O1583       O  0.76489777  0.91873032  0.75721148    -0.39200
O1584       O  0.80207421  0.88570547  0.73322170    -0.39200
O1585       O  0.84423296  0.10605126  0.75412712    -0.39900
O1586       O  0.88097360  0.07276301  0.72948368    -0.39900
C1587       C  0.77941657  0.24627312  0.64472954    -0.12200
C1588       C  0.76405343  0.20787581  0.64333821     0.04800
C1589       C  0.73250694  0.20864148  0.64686000    -0.07500
C1590       C  0.71687615  0.24730082  0.64693040    -0.08300
C1591       C  0.73218456  0.28550040  0.64357208    -0.02800
C1592       C  0.76382475  0.28485112  0.64485131     0.04000
N1593       N  0.78043434  0.32321872  0.64325650     0.66500
H1594       H  0.80358163  0.24655391  0.64255867     0.15400
H1595       H  0.69264596  0.24709599  0.64629776     0.15100
N1596       N  0.71590440  0.17030099  0.64834833     0.74200
O1597       O  0.78449682  0.34460520  0.66949478    -0.39200
O1598       O  0.79509609  0.33185256  0.61726180    -0.39200
O1599       O  0.70962853  0.15478041  0.67640962    -0.39900
O1600       O  0.70263503  0.15695228  0.62265086    -0.39900
C1601       C  0.50057877  0.47612314  0.52306643    -0.12200
C1602       C  0.97898669  0.50766231  0.51344996     0.04800
C1603       C  0.98031906  0.52528890  0.48141117    -0.07500
C1604       C  0.00396771  0.51415763  0.46045159    -0.08300
C1605       C  0.52621178  0.48268156  0.47047721    -0.02800
C1606       C  0.52360280  0.46366493  0.50188244     0.04000
N1607       N  0.54431694  0.43214686  0.51278663     0.66500
H1608       H  0.49988088  0.46241846  0.54780598     0.15400
H1609       H  0.00424787  0.52703172  0.43542332     0.15100
N1610       N  0.95709815  0.55243745  0.46922591     0.74200
O1611       O  0.56893203  0.44314261  0.52533682    -0.39200
O1612       O  0.53601680  0.39428316  0.51509238    -0.39200
O1613       O  0.96368117  0.58456731  0.45232150    -0.39900
O1614       O  0.93031277  0.54015011  0.46996575    -0.39900
C1615       C  0.59935929  0.32736197  0.48569994    -0.12200
C1616       C  0.61442285  0.33338112  0.45492662     0.04800
C1617       C  0.64593677  0.33595795  0.45603931    -0.07500
C1618       C  0.66103254  0.33549905  0.48683402    -0.08300
C1619       C  0.64583983  0.33361407  0.51784639    -0.02800
C1620       C  0.61453973  0.32771275  0.51671820     0.04000
N1621       N  0.59749712  0.32403931  0.54673169     0.66500
H1622       H  0.57521125  0.32485997  0.48605002     0.15400
H1623       H  0.68508610  0.33934742  0.48620859     0.15100
N1624       N  0.66310228  0.34194377  0.42635073     0.74200
O1625       O  0.58726148  0.35679037  0.56079999    -0.39200
O1626       O  0.58817907  0.28829718  0.55558613    -0.39200
O1627       O  0.67223464  0.37838096  0.41911125    -0.39900
O1628       O  0.67383737  0.31029375  0.41121087    -0.39900
C1629       C  0.51393242  0.20567449  0.34530254    -0.12200
C1630       C  0.98282341  0.21052518  0.34561132     0.04800
C1631       C  0.96990399  0.25055046  0.33986448    -0.07500
C1632       C  0.98810253  0.28667961  0.33926287    -0.08300
C1633       C  0.51891495  0.28205646  0.34252276    -0.02800
C1634       C  0.53215262  0.24163195  0.34359016     0.04000
N1635       N  0.56376586  0.23668709  0.34694120     0.66500
H1636       H  0.52459354  0.17524347  0.34878417     0.15400
H1637       H  0.97746630  0.31743471  0.33767288     0.15100
N1638       N  0.93825725  0.25563657  0.33743032     0.74200
O1639       O  0.57536698  0.23668691  0.37561496    -0.39200
O1640       O  0.57909511  0.22472460  0.32213651    -0.39200
O1641       O  0.92370452  0.27050111  0.36184685    -0.39900
O1642       O  0.92582584  0.25243393  0.30930379    -0.39900
C1643       C  0.99727999  0.98787395  0.46089074    -0.12200
C1644       C  0.97083981  0.00737453  0.47214646     0.04800
C1645       C  0.96557268  0.01298025  0.50625072    -0.07500
C1646       C  0.48955504  0.00162686  0.52833833    -0.08300
C1647       C  0.51634344  0.98279209  0.51701573    -0.02800
C1648       C  0.01912214  0.97535564  0.48336844     0.04000
N1649       N  0.04524276  0.95406633  0.47129809     0.66500
H1650       H  0.00133181  0.98326623  0.43455707     0.15400
H1651       H  0.48571956  0.00669023  0.55463326     0.15100
N1652       N  0.43781406  0.02332842  0.51821906     0.74200
O1653       O  0.04566690  0.91428857  0.47032020    -0.39200
O1654       O  0.56548012  0.97140910  0.45487769    -0.39200
O1655       O  0.91663902  0.99662890  0.52117884    -0.39900
O1656       O  0.43296731  0.06036491  0.52854328    -0.39900
C1657       C  0.89032651  0.16219144  0.52692091    -0.12200
C1658       C  0.85897420  0.16542307  0.52777245     0.04800
C1659       C  0.84445711  0.17523267  0.49713693    -0.07500
C1660       C  0.86009592  0.17296620  0.46650254    -0.08300
C1661       C  0.89108951  0.16609597  0.46538447    -0.02800
C1662       C  0.90642369  0.16493350  0.49656301     0.04000
N1663       N  0.93830388  0.16790255  0.49800183     0.66500
H1664       H  0.90252868  0.15732356  0.54992640     0.15400
H1665       H  0.84781889  0.17684322  0.44342239     0.15100
N1666       N  0.81398466  0.18887133  0.49667658     0.74200
O1667       O  0.95050284  0.20336533  0.49420702    -0.39200
O1668       O  0.95374022  0.13730771  0.50838279    -0.39200
O1669       O  0.80786116  0.22692921  0.50327105    -0.39900
O1670       O  0.79442608  0.16596241  0.48324269    -0.39900
C1671       C  0.64510736  0.65978944  0.98907174    -0.12200
C1672       C  0.62984615  0.65569802  0.95826078     0.04800
C1673       C  0.59829290  0.65620567  0.95937722    -0.07500
C1674       C  0.58319328  0.65694270  0.99032778    -0.08300
C1675       C  0.59853203  0.65650194  0.02123151    -0.02800
C1676       C  0.62997835  0.65999445  0.02009052     0.04000
N1677       N  0.64717628  0.66128908  0.05006616     0.66500
H1678       H  0.66932500  0.66033842  0.98941844     0.15400
H1679       H  0.55898753  0.65568678  0.98998111     0.15100
N1680       N  0.58106395  0.65451648  0.92942643     0.74200
O1681       O  0.65505244  0.62730714  0.06382196    -0.39200
O1682       O  0.65879930  0.69558871  0.05932569    -0.39200
O1683       O  0.57248636  0.61936744  0.91813940    -0.39900
O1684       O  0.57037055  0.68810461  0.91751293    -0.39900
C1685       C  0.50614231  0.46265209  0.02758602    -0.12200
C1686       C  0.52546397  0.49489246  0.01771799     0.04800
C1687       C  0.52227288  0.51340158  0.98624415    -0.07500
C1688       C  0.99529610  0.50572934  0.96554355    -0.08300
C1689       C  0.97578130  0.47459137  0.97752463    -0.02800
C1690       C  0.98283501  0.45303618  0.00710281     0.04000
N1691       N  0.96276373  0.42303322  0.02113503     0.66500
H1692       H  0.50799984  0.44933410  0.05237059     0.15400
H1693       H  0.99116199  0.52125265  0.94196810     0.15100
N1694       N  0.54240432  0.54559284  0.97548489     0.74200
O1695       O  0.46606955  0.38536824  0.02322145    -0.39200
O1696       O  0.94104207  0.43592636  0.03862763    -0.39200
O1697       O  0.57027537  0.53932977  0.97640035    -0.39900
O1698       O  0.02684522  0.58586056  0.96394379    -0.39900
C1699       C  0.59575456  0.50649311  0.22131040    -0.12200
C1700       C  0.56900591  0.52940853  0.21668147     0.04800
C1701       C  0.54430462  0.51930880  0.23704400    -0.07500
C1702       C  0.54675689  0.48793030  0.26154403    -0.08300
C1703       C  0.57343903  0.46510399  0.26639551    -0.02800
C1704       C  0.59812714  0.47472712  0.24583550     0.04000
N1705       N  0.62567937  0.45225990  0.24943259     0.66500
H1706       H  0.61446815  0.51173006  0.20461655     0.15400
H1707       H  0.52793855  0.48271192  0.27811984     0.15100
N1708       N  0.51650507  0.54115933  0.23328964     0.74200
O1709       O  0.62867123  0.41636651  0.23600854    -0.39200
O1710       O  0.64832259  0.47088492  0.26091810    -0.39200
O1711       O  0.00319828  0.46856941  0.19745994    -0.39900
O1712       O  0.51270222  0.57643165  0.24747654    -0.39900
C1713       C  0.89118175  0.00076845  0.22459843    -0.12200
C1714       C  0.91708861  0.97829419  0.21507168     0.04800
C1715       C  0.94362330  0.98575600  0.23294443    -0.07500
C1716       C  0.94383469  0.01484063  0.25965358    -0.08300
C1717       C  0.91787514  0.03715820  0.26944471    -0.02800
C1718       C  0.89121881  0.02915898  0.25181951     0.04000
N1719       N  0.86362060  0.04762496  0.26248152     0.66500
H1720       H  0.87075111  0.99659540  0.21045797     0.15400
H1721       H  0.96421599  0.01857122  0.27396518     0.15100
N1722       N  0.47171945  0.96516660  0.22344982     0.74200
O1723       O  0.85563304  0.08282720  0.25087385    -0.39200
O1724       O  0.84480076  0.02519062  0.27762760    -0.39200
O1725       O  0.49148325  0.98540309  0.20786023    -0.39900
O1726       O  0.47804962  0.92957078  0.23555917    -0.39900
C1727       C  0.96626377  0.75942959  0.14356598    -0.12200
C1728       C  0.98212553  0.79733047  0.14137613     0.04800
C1729       C  0.51520924  0.79593248  0.14306232    -0.07500
C1730       C  0.53039839  0.75685592  0.14360944    -0.08300
C1731       C  0.51457480  0.71881299  0.14228907    -0.02800
C1732       C  0.98119300  0.72041408  0.14368689     0.04000
N1733       N  0.96383927  0.68278447  0.14157726     0.66500
H1734       H  0.94207497  0.75971065  0.14184720     0.15400
H1735       H  0.55460710  0.75636102  0.14218841     0.15100
N1736       N  0.53233149  0.83387454  0.14271624     0.74200
O1737       O  0.95352463  0.67138397  0.11369186    -0.39200
O1738       O  0.95336347  0.66692874  0.16789808    -0.39200
O1739       O  0.53830604  0.85217282  0.16992361    -0.39900
O1740       O  0.54622788  0.84413873  0.11658456    -0.39900
C1741       C  0.99637258  0.95945609  0.00252887    -0.12200
C1742       C  0.97384995  0.98816858  0.01213812     0.04800
C1743       C  0.47634347  0.03178414  0.00546124    -0.07500
C1744       C  0.50192770  0.04655940  0.98976252    -0.08300
C1745       C  0.52524521  0.01885247  0.98091103    -0.02800
C1746       C  0.02223097  0.97320874  0.98659752     0.04000
N1747       N  0.04559690  0.94364558  0.97872519     0.66500
H1748       H  0.99483594  0.92633330  0.00939583     0.15400
H1749       H  0.50253045  0.07952610  0.98230482     0.15100
N1750       N  0.45252330  0.06064719  0.01278911     0.74200
O1751       O  0.07232604  0.95183627  0.98631966    -0.39200
O1752       O  0.03951595  0.90883941  0.96493804    -0.39200
O1753       O  0.45524679  0.08670632  0.03649784    -0.39900
O1754       O  0.43184000  0.06571399  0.99182411    -0.39900
C1755       C  0.88722792  0.83783340  0.96423664    -0.12200
C1756       C  0.85580591  0.83986586  0.96367853     0.04800
C1757       C  0.84085923  0.84087382  0.99519631    -0.07500
C1758       C  0.85715435  0.84285233  0.02530414    -0.08300
C1759       C  0.88851075  0.84249845  0.02581628    -0.02800
C1760       C  0.90348025  0.83816675  0.99451889     0.04000
N1761       N  0.93536243  0.83547068  0.99274780     0.66500
H1762       H  0.89947343  0.83676171  0.94088894     0.15400
H1763       H  0.84492881  0.84587798  0.04857608     0.15100
N1764       N  0.80897066  0.84205055  0.99746131     0.74200
O1765       O  0.94851635  0.80191273  0.00127933    -0.39200
O1766       O  0.95014352  0.86496163  0.97976082    -0.39200
O1767       O  0.79447268  0.80830760  0.99376646    -0.39900
O1768       O  0.79628376  0.87359166  0.01076765    -0.39900
C1769       C  0.89903984  0.33293854  0.99556318    -0.12200
C1770       C  0.88323123  0.33394852  0.96500866     0.04800
C1771       C  0.85171157  0.33139799  0.96685851    -0.07500
C1772       C  0.83698061  0.33273422  0.99810225    -0.08300
C1773       C  0.85274689  0.33591688  0.02858364    -0.02800
C1774       C  0.88429231  0.33348596  0.02684478     0.04000
N1775       N  0.90178784  0.33114832  0.05655629     0.66500
H1776       H  0.92326719  0.33336462  0.99537661     0.15400
H1777       H  0.81274427  0.33298355  0.99823246     0.15100
N1778       N  0.83418233  0.32718117  0.93729025     0.74200
O1779       O  0.90983208  0.29557702  0.06741600    -0.39200
O1780       O  0.91303632  0.36417150  0.06880506    -0.39200
O1781       O  0.82554593  0.29106519  0.92820898    -0.39900
O1782       O  0.82307723  0.35951826  0.92381305    -0.39900
C1783       C  0.74299613  0.51390553  0.02191129    -0.12200
C1784       C  0.76343236  0.48194112  0.01284514     0.04800
C1785       C  0.75986771  0.46033522  0.98236830    -0.07500
C1786       C  0.73597662  0.47091177  0.96175817    -0.08300
C1787       C  0.71587468  0.50350593  0.97060570    -0.02800
C1788       C  0.71913975  0.52430276  0.00142209     0.04000
N1789       N  0.69817178  0.55557470  0.01253351     0.66500
H1790       H  0.74440423  0.52952343  0.04599137     0.15400
H1791       H  0.73439357  0.45521501  0.93773137     0.15100
N1792       N  0.78039732  0.42799254  0.97190718     0.74200
O1793       O  0.67379500  0.54420682  0.02548102    -0.39200
O1794       O  0.70612173  0.59361815  0.01482209    -0.39200
O1795       O  0.77087030  0.39193388  0.96388442    -0.39900
O1796       O  0.80805407  0.43546633  0.97044543    -0.39900
C1797       C  0.90025452  0.52460081  0.09375240    -0.12200
C1798       C  0.89651183  0.48742597  0.11226718     0.04800
C1799       C  0.92101756  0.47178096  0.13085567    -0.07500
C1800       C  0.94853046  0.49215246  0.12940165    -0.08300
C1801       C  0.95244907  0.52851078  0.11019226    -0.02800
C1802       C  0.92789197  0.54508022  0.09241743     0.04000
N1803       N  0.93102730  0.58081593  0.07108196     0.66500
H1804       H  0.88186541  0.53736331  0.07938819     0.15400
H1805       H  0.96710114  0.47917013  0.14333081     0.15100
N1806       N  0.91850016  0.43539949  0.15157608     0.74200
O1807       O  0.94528027  0.57700525  0.04400813    -0.39200
O1808       O  0.91481283  0.61299675  0.07584937    -0.39200
O1809       O  0.92791484  0.40006406  0.14124619    -0.39900
O1810       O  0.90918129  0.43923628  0.18119053    -0.39900
C1811       C  0.65219505  0.47918698  0.09820160    -0.12200
C1812       C  0.64844105  0.51657905  0.11646511     0.04800
C1813       C  0.67294568  0.53357551  0.13383760    -0.07500
C1814       C  0.70079174  0.51348827  0.13213850    -0.08300
C1815       C  0.70506486  0.47661908  0.11294282    -0.02800
C1816       C  0.68014660  0.45943015  0.09576453     0.04000
N1817       N  0.68266258  0.42275029  0.07496313     0.66500
H1818       H  0.63344035  0.46590963  0.08469566     0.15400
H1819       H  0.71926651  0.52739069  0.14568935     0.15100
N1820       N  0.66967016  0.57038187  0.15430991     0.74200
O1821       O  0.66816557  0.39011328  0.08250737    -0.39200
O1822       O  0.69237052  0.42659431  0.04554513    -0.39200
O1823       O  0.66317310  0.56644588  0.18478500    -0.39900
O1824       O  0.67854603  0.60555276  0.14365927    -0.39900
C1825       C  0.81590433  0.97005769  0.13066944    -0.12200
C1826       C  0.83655570  0.98248003  0.10614751     0.04800
C1827       C  0.82748015  0.01110151  0.08134989    -0.07500
C1828       C  0.79835342  0.02662548  0.08154469    -0.08300
C1829       C  0.77766561  0.01442374  0.10612195    -0.02800
C1830       C  0.78671145  0.98566975  0.13091493     0.04000
N1831       N  0.76687376  0.97240228  0.15678306     0.66500
H1832       H  0.82249748  0.94846763  0.15025802     0.15400
H1833       H  0.79193130  0.04814915  0.06184053     0.15100
N1834       N  0.84726213  0.02422830  0.05539214     0.74200
O1835       O  0.75283389  0.93819969  0.15353499    -0.39200
O1836       O  0.76787048  0.99020735  0.18500220    -0.39200
O1837       O  0.84726287  0.00488693  0.02778091    -0.39900
O1838       O  0.86025633  0.05935694  0.05778239    -0.39900
C1839       C  0.55139382  0.96166386  0.10425028    -0.12200
C1840       C  0.52746104  0.98855746  0.11259897     0.04800
C1841       C  0.53328018  0.03061719  0.12196921    -0.07500
C1842       C  0.56268934  0.04504452  0.12214241    -0.08300
C1843       C  0.58652566  0.01837221  0.11276973    -0.02800
C1844       C  0.58065493  0.97605751  0.10417051     0.04000
N1845       N  0.60409300  0.94692148  0.09605756     0.66500
H1846       H  0.54740179  0.92902346  0.09733180     0.15400
H1847       H  0.56675657  0.07773621  0.12884319     0.15100
N1848       N  0.50964707  0.05968270  0.12946345     0.74200
O1849       O  0.61613901  0.92562864  0.11893517    -0.39200
O1850       O  0.60882826  0.93699046  0.06596006    -0.39200
O1851       O  0.50404314  0.06917271  0.15946090    -0.39900
O1852       O  0.49843834  0.08151692  0.10637490    -0.39900
C1853       C  0.71532072  0.24324953  0.14619068    -0.12200
C1854       C  0.73115915  0.20562574  0.14031912     0.04800
C1855       C  0.76287019  0.20742362  0.13931032    -0.07500
C1856       C  0.77756089  0.24656554  0.14055957    -0.08300
C1857       C  0.76137358  0.28451340  0.14257509    -0.02800
C1858       C  0.72999463  0.28233157  0.14714882     0.04000
N1859       N  0.71236741  0.31982352  0.15047852     0.66500
H1860       H  0.69110661  0.24286668  0.14738914     0.15400
H1861       H  0.80160944  0.24731919  0.13717684     0.15100
N1862       N  0.78048634  0.16996713  0.13525746     0.74200
O1863       O  0.69682257  0.33210157  0.12614559    -0.39200
O1864       O  0.70720278  0.33475264  0.17917826    -0.39200
O1865       O  0.79345964  0.16269534  0.10780620    -0.39900
O1866       O  0.78744497  0.14858485  0.16056172    -0.39900
C1867       C  0.58884410  0.15166452  0.99284590    -0.12200
C1868       C  0.60561712  0.15534460  0.96306352     0.04800
C1869       C  0.63686373  0.16031324  0.96630661    -0.07500
C1870       C  0.65034955  0.16075847  0.99818771    -0.08300
C1871       C  0.63377271  0.15486948  0.02795031    -0.02800
C1872       C  0.60242699  0.15067728  0.02467105     0.04000
N1873       N  0.58405228  0.14275481  0.05309944     0.66500
H1874       H  0.56487999  0.14705209  0.99147958     0.15400
H1875       H  0.67446169  0.16360228  0.99932596     0.15100
N1876       N  0.65552904  0.16365107  0.93748635     0.74200
O1877       O  0.57158104  0.17323538  0.06808572    -0.39200
O1878       O  0.57563544  0.10558502  0.05894854    -0.39200
O1879       O  0.66420861  0.19950936  0.92813752    -0.39900
O1880       O  0.66783757  0.13095192  0.92555799    -0.39900
C1881       C  0.73736693  0.04132121  0.99482186    -0.12200
C1882       C  0.71714040  0.01277303  0.00890708     0.04800
C1883       C  0.72244435  0.96902066  0.00555965    -0.07500
C1884       C  0.74847326  0.95490179  0.98974271    -0.08300
C1885       C  0.76913042  0.98349842  0.97641752    -0.02800
C1886       C  0.76338517  0.02716648  0.97921144     0.04000
N1887       N  0.78415397  0.05764416  0.96712179     0.66500
H1888       H  0.73427107  0.07502607  0.99814862     0.15400
H1889       H  0.75157678  0.92126832  0.98621449     0.15100
N1890       N  0.70179373  0.93866388  0.01848045     0.74200
O1891       O  0.77830047  0.07785671  0.94087627    -0.39200
O1892       O  0.80507527  0.06992975  0.98580706    -0.39200
O1893       O  0.67410511  0.94285053  0.01337608    -0.39900
O1894       O  0.71122172  0.90722922  0.03462941    -0.39900
C1895       C  0.88731862  0.66567426  0.46927298    -0.12200
C1896       C  0.85724830  0.65304276  0.46795096     0.04800
C1897       C  0.84273620  0.64478213  0.49900780    -0.07500
C1898       C  0.85888410  0.64540051  0.52916877    -0.08300
C1899       C  0.88931884  0.65550703  0.53029665    -0.02800
C1900       C  0.90303585  0.66813252  0.49986089     0.04000
N1901       N  0.93285553  0.68405683  0.49946253     0.66500
H1902       H  0.89889278  0.67340818  0.44632980     0.15400
H1903       H  0.84749954  0.63627215  0.55190708     0.15100
N1904       N  0.81189600  0.63320844  0.50065598     0.74200
O1905       O  0.95442296  0.65970113  0.49261675    -0.39200
O1906       O  0.93699263  0.72340605  0.50003865    -0.39200
O1907       O  0.80481388  0.59904105  0.51456347    -0.39900
O1908       O  0.79212674  0.66130985  0.49684488    -0.39900
C1909       C  0.74719372  0.53883482  0.48324383    -0.12200
C1910       C  0.76331244  0.50954644  0.46359488     0.04800
C1911       C  0.75033107  0.46969419  0.45687191    -0.07500
C1912       C  0.72396847  0.45850007  0.47295070    -0.08300
C1913       C  0.71184313  0.48478670  0.49771364    -0.02800
C1914       C  0.72100708  0.52696830  0.49958429     0.04000
N1915       N  0.70602689  0.55634541  0.52117069     0.66500
H1916       H  0.75502313  0.57085376  0.48637530     0.15400
H1917       H  0.71617588  0.42627145  0.47054823     0.15100
N1918       N  0.76459716  0.43883695  0.43601450     0.74200
O1919       O  0.71919154  0.57093162  0.54648952    -0.39200
O1920       O  0.67878248  0.56492985  0.51653275    -0.39200
O1921       O  0.78457100  0.41529501  0.44818101    -0.39900
O1922       O  0.75286218  0.42891727  0.40849488    -0.39900
C1923       C  0.91540189  0.47358480  0.38451311    -0.12200
C1924       C  0.91142714  0.51541821  0.37403417     0.04800
C1925       C  0.93634807  0.53699285  0.36055926    -0.07500
C1926       C  0.96433143  0.51700820  0.35881566    -0.08300
C1927       C  0.96839478  0.47563896  0.37029028    -0.02800
C1928       C  0.94327691  0.45360437  0.38262571     0.04000
N1929       N  0.94549764  0.41069904  0.39319037     0.66500
H1930       H  0.89664456  0.45579717  0.39409917     0.15400
H1931       H  0.98325212  0.53474577  0.34956657     0.15100
N1932       N  0.93403127  0.57961804  0.34939500     0.74200
O1933       O  0.94652911  0.40251174  0.42394820    -0.39200
O1934       O  0.94034644  0.38138969  0.37258313    -0.39200
O1935       O  0.94039701  0.60938152  0.36913740    -0.39900
O1936       O  0.93140837  0.58701051  0.31863194    -0.39900
C1937       C  0.68230295  0.46190208  0.35230012    -0.12200
C1938       C  0.66037569  0.47493081  0.37539970     0.04800
C1939       C  0.66781106  0.50600368  0.39931151    -0.07500
C1940       C  0.69634036  0.52356243  0.39928877    -0.08300
C1941       C  0.71828382  0.51090051  0.37598041    -0.02800
C1942       C  0.71097714  0.47932698  0.35240229     0.04000
N1943       N  0.73191817  0.46520097  0.32776715     0.66500
H1944       H  0.67713407  0.43827125  0.33352237     0.15400
H1945       H  0.70137326  0.54691867  0.41832885     0.15100
N1946       N  0.64697583  0.51965133  0.42428467     0.74200
O1947       O  0.74888791  0.43439057  0.33419278    -0.39200
O1948       O  0.72795562  0.47566985  0.29777948    -0.39200
O1949       O  0.64723188  0.50244275  0.45259899    -0.39900
O1950       O  0.63267258  0.55366870  0.42031809    -0.39900
C1951       C  0.79733888  0.50723037  0.26550889    -0.12200
C1952       C  0.82280541  0.53209369  0.27166730     0.04800
C1953       C  0.84739849  0.52737967  0.24992823    -0.07500
C1954       C  0.84622005  0.49825163  0.22318026    -0.08300
C1955       C  0.82101699  0.47255175  0.21765269    -0.02800
C1956       C  0.79616236  0.47807149  0.23887593     0.04000
N1957       N  0.76931459  0.45494376  0.23319449     0.66500
H1958       H  0.77851880  0.50937195  0.28256633     0.15400
H1959       H  0.86494785  0.49646350  0.20594865     0.15100
N1960       N  0.87400157  0.55115577  0.25519412     0.74200
O1961       O  0.76670758  0.41822066  0.24479144    -0.39200
O1962       O  0.74688662  0.47314207  0.22063858    -0.39200
O1963       O  0.89667262  0.53349897  0.26766639    -0.39900
O1964       O  0.87650487  0.58709397  0.24213154    -0.39900
C1965       C  0.78225955  0.02400931  0.36909452    -0.12200
C1966       C  0.77859964  0.98518815  0.38534414     0.04800
C1967       C  0.80408811  0.96612957  0.40002258    -0.07500
C1968       C  0.83200777  0.98564009  0.39792858    -0.08300
C1969       C  0.83575621  0.02433018  0.38154558    -0.02800
C1970       C  0.81023470  0.04369320  0.36720000     0.04000
N1971       N  0.81205041  0.08351151  0.35079866     0.66500
H1972       H  0.76316259  0.03973579  0.35801068     0.15400
H1973       H  0.85100413  0.96989989  0.40921458     0.15100
N1974       N  0.80230859  0.92676439  0.41711576     0.74200
O1975       O  0.81220283  0.08481944  0.31934261    -0.39200
O1976       O  0.80732629  0.11694785  0.36726164    -0.39200
O1977       O  0.80887337  0.89302123  0.40185537    -0.39900
O1978       O  0.79976436  0.92650603  0.44847751    -0.39900
C1979       C  0.53249954  0.97533060  0.35811662    -0.12200
C1980       C  0.52901623  0.01745219  0.36839872     0.04800
C1981       C  0.55463718  0.04048126  0.37774775    -0.07500
C1982       C  0.58235755  0.02036874  0.37958071    -0.08300
C1983       C  0.58578417  0.97765514  0.37094577    -0.02800
C1984       C  0.56061678  0.95552815  0.35858229     0.04000
N1985       N  0.56296923  0.91311132  0.34648002     0.66500
H1986       H  0.51318195  0.95724110  0.35038093     0.15400
H1987       H  0.60149634  0.03881069  0.38735953     0.15100
N1988       N  0.55314873  0.08479668  0.38432097     0.74200
O1989       O  0.54915476  0.88416638  0.36139151    -0.39200
O1990       O  0.57204703  0.90666304  0.31703922    -0.39200
O1991       O  0.55580045  0.09822386  0.41386559    -0.39900
O1992       O  0.55612488  0.11011242  0.36039110    -0.39900
C1993       C  0.68991883  0.98425249  0.21849410    -0.12200
C1994       C  0.67440967  0.02327637  0.21612297     0.04800
C1995       C  0.65757380  0.03678720  0.24383061    -0.07500
C1996       C  0.65618908  0.01146549  0.27254191    -0.08300
C1997       C  0.67147113  0.97225160  0.27484888    -0.02800
C1998       C  0.68855169  0.95890723  0.24724601     0.04000
N1999       N  0.70532681  0.92049146  0.24825500     0.66500
H2000       H  0.70292009  0.97280587  0.19740281     0.15400
H2001       H  0.64297905  0.02283485  0.29350459     0.15100
N2002       N  0.64063738  0.07506298  0.24274272     0.74200
O2003       O  0.69348068  0.88667473  0.23826598    -0.39200
O2004       O  0.73320136  0.92173021  0.25283863    -0.39200
O2005       O  0.61313801  0.07383653  0.23591773    -0.39900
O2006       O  0.65178684  0.10869598  0.25406294    -0.39900
C2007       C  0.76543756  0.78802516  0.35533261    -0.12200
C2008       C  0.73403052  0.78753590  0.35210947     0.04800
C2009       C  0.72016407  0.74827587  0.34602798    -0.07500
C2010       C  0.73714200  0.71073995  0.34708859    -0.08300
C2011       C  0.76809755  0.71116648  0.35356531    -0.02800
C2012       C  0.78240043  0.75061049  0.35617124     0.04000
N2013       N  0.81353613  0.75324336  0.36370405     0.66500
H2014       H  0.77686116  0.81766336  0.35963469     0.15400
H2015       H  0.72568187  0.68080604  0.34464041     0.15100
N2016       N  0.68858163  0.74548185  0.34150449     0.74200
O2017       O  0.83204158  0.76001740  0.34057453    -0.39200
O2018       O  0.82182428  0.75627452  0.39370020    -0.39200
O2019       O  0.67806187  0.74253345  0.31240259    -0.39900
O2020       O  0.67187264  0.73875540  0.36629563    -0.39900
C2021       C  0.65307895  0.83778138  0.49267833    -0.12200
C2022       C  0.63683749  0.83727604  0.46240893     0.04800
C2023       C  0.60548132  0.83303091  0.46486055    -0.07500
C2024       C  0.59122092  0.83314474  0.49643517    -0.08300
C2025       C  0.60730091  0.83762642  0.52664733    -0.02800
C2026       C  0.63889046  0.83809651  0.52423672     0.04000
N2027       N  0.65713036  0.83970174  0.55346177     0.66500
H2028       H  0.67723438  0.84017853  0.49207253     0.15400
H2029       H  0.56702941  0.83162166  0.49703827     0.15100
N2030       N  0.58759236  0.82901966  0.43558101     0.74200
O2031       O  0.66189112  0.87463192  0.56769593    -0.39200
O2032       O  0.67275681  0.80799814  0.56120757    -0.39200
O2033       O  0.57695577  0.79352041  0.42778358    -0.39900
O2034       O  0.57806358  0.86171054  0.42123005    -0.39900
C2035       C  0.73966300  0.01752591  0.46252873    -0.12200
C2036       C  0.72520838  0.98073551  0.47322475     0.04800
C2037       C  0.73852755  0.95607122  0.49816970    -0.07500
C2038       C  0.76505103  0.96938864  0.51277331    -0.08300
C2039       C  0.77766867  0.00873371  0.50473038    -0.02800
C2040       C  0.76580607  0.03155135  0.47768005     0.04000
N2041       N  0.77925364  0.06965526  0.46601037     0.66500
H2042       H  0.73085581  0.03552852  0.44180358     0.15400
H2043       H  0.77358837  0.95097770  0.53342402     0.15100
N2044       N  0.72385872  0.91994107  0.51147442     0.74200
O2045       O  0.80681885  0.07024593  0.45928220    -0.39200
O2046       O  0.76289392  0.10008111  0.45699229    -0.39200
O2047       O  0.73431820  0.88355489  0.50577814    -0.39900
O2048       O  0.70453356  0.92501620  0.53412946    -0.39900
loop_ 
_geom_bond_atom_site_label_1 
_geom_bond_atom_site_label_2 
_geom_bond_distance 
_geom_bond_site_symmetry_2 
_ccdc_geom_bond_type 
Fe1          O17   2.124       .  S
Fe1           O7   2.083       .  S
Fe1          O14   2.138       .  S
Fe1           O6   2.137       .  S
Fe1          O12   1.944       .  S
Fe2           O5   2.028       .  S
Fe2           O9   2.071       .  S
Fe2          O13   2.035       .  S
Fe2          O18   2.075       .  S
Fe2          O12   1.949       .  S
Fe3          O21   2.060       .  S
Fe3           O8   2.073       .  S
Fe3          O15   2.056       .  S
Fe3           O4   2.044       .  S
Fe3          O12   1.951       .  S
O4           C11   1.267       .  A
O5           C19   1.256       .  A
O6           C11   1.291       .  A
O7           C10   1.270       .  A
O8           C20   1.276       .  A
O9           C22   1.269       .  A
C10          O15   1.271       .  A
C10         C959   1.488       .  S
C11         C973   1.500       .  S
O13          C16   1.264       .  A
O14          C16   1.283       .  A
C16         C984   1.501       .  S
O17          C22   1.281       .  A
O18          C20   1.273       .  A
C19          O21   1.264       .  A
C19        C1012   1.469       .  S
C20         C942   1.493       .  S
C22         C998   1.520       .  S
Fe23         O39   2.133       .  S
Fe23         O29   2.079       .  S
Fe23         O36   2.128       .  S
Fe23         O28   2.133       .  S
Fe23         O34   1.943       .  S
Fe24         O27   2.021       .  S
Fe24         O31   2.069       .  S
Fe24         O35   2.046       .  S
Fe24         O40   2.062       .  S
Fe24         O34   1.947       .  S
Fe25         O43   2.057       .  S
Fe25         O30   2.074       .  S
Fe25         O37   2.061       .  S
Fe25         O26   2.039       .  S
Fe25         O34   1.967       .  S
O26          C33   1.265       .  A
O27          C41   1.256       .  A
O28          C33   1.290       .  A
O29          C32   1.270       .  A
O30          C42   1.274       .  A
O31          C44   1.267       .  A
C32          O37   1.271       .  A
C32         C900   1.490       .  S
C33         C928   1.487       .  S
O35          C38   1.265       .  A
O36          C38   1.281       .  A
C38         C987   1.497       .  S
O39          C44   1.283       .  A
O40          C42   1.272       .  A
C41          O43   1.259       .  A
C41         C886   1.475       .  S
C42         C917   1.485       .  S
C44         C872   1.518       .  S
Fe45         O61   2.132       .  S
Fe45         O51   2.067       .  S
Fe45         O58   2.131       .  S
Fe45         O50   2.135       .  S
Fe45         O56   1.928       .  S
Fe46         O49   2.039       .  S
Fe46         O53   2.064       .  S
Fe46         O57   2.041       .  S
Fe46         O62   2.070       .  S
Fe46         O56   1.935       .  S
Fe47         O65   2.047       .  S
Fe47         O52   2.049       .  S
Fe47         O59   2.039       .  S
Fe47         O48   2.039       .  S
Fe47         O56   1.940       .  S
O48          C55   1.265       .  A
O49          C63   1.258       .  A
O50          C55   1.290       .  A
O51          C54   1.271       .  A
O52          C64   1.271       .  A
O53          C66   1.266       .  A
C54          O59   1.268       .  A
C54         C819   1.471       .  S
C55         C970   1.498       .  S
O57          C60   1.266       .  A
O58          C60   1.285       .  A
C60         C830   1.501       .  S
O61          C66   1.280       .  A
O62          C64   1.275       .  A
C63          O65   1.261       .  A
C63         C858   1.463       .  S
C64         C805   1.475       .  S
C66         C847   1.521       .  S
Fe67         O83   2.120       .  S
Fe67         O73   2.069       .  S
Fe67         O80   2.129       .  S
Fe67         O72   2.131       .  S
Fe67         O78   1.941       .  S
Fe68         O71   2.032       .  S
Fe68         O75   2.081       .  S
Fe68         O79   2.044       .  S
Fe68         O84   2.079       .  S
Fe68         O78   1.947       .  S
Fe69         O87   2.041       .  S
Fe69         O74   2.058       .  S
Fe69         O81   2.051       .  S
Fe69         O70   2.037       .  S
Fe69         O78   1.950       .  S
O70          C77   1.263       .  A
O71          C85   1.260       .  A
O72          C77   1.288       .  A
O73          C76   1.271       .  A
O74          C86   1.273       .  A
O75          C88   1.271       .  A
C76          O81   1.270       .  A
C76         C774   1.484       .  S
C77         C931   1.487       .  S
O79          C82   1.266       .  A
O80          C82   1.283       .  A
C82         C833   1.492       .  S
O83          C88   1.279       .  A
O84          C86   1.272       .  A
C85          O87   1.262       .  A
C85         C760   1.464       .  S
C86         C791   1.488       .  S
C88         C749   1.520       .  S
Fe89        O105   2.120       .  S
Fe89         O95   2.120       .  S
Fe89        O102   2.117       .  S
Fe89         O94   2.072       .  S
Fe89        O100   1.927       .  S
Fe90         O97   2.049       .  S
Fe90        O101   2.066       .  S
Fe90        O106   2.034       .  S
Fe90       O1117   2.058       .  S
Fe90        O100   1.936       .  S
Fe91         O96   2.054       .  S
Fe91        O103   2.053       .  S
Fe91         O92   2.044       .  S
Fe91       O1133   2.054       .  S
Fe91        O100   1.951       .  S
O92          C99   1.269       .  A
O93       Fe1114   2.060       .  S
O93         C107   1.274       .  A
O94          C99   1.273       .  A
O95          C98   1.285       .  A
O96         C108   1.261       .  A
O97         C110   1.266       .  A
C98         O103   1.265       .  A
C98         C690   1.484       .  S
C99         C802   1.471       .  S
O101        C104   1.266       .  A
O102        C104   1.280       .  A
C104        C735   1.517       .  S
O105        C110   1.281       .  A
O106        C108   1.258       .  A
C107        O109   1.272       .  A
C107        C816   1.469   1_655  S
C108        C718   1.459       .  S
O109      Fe1115   2.052       .  S
C110        C704   1.495       .  S
Fe111       O127   2.111       .  S
Fe111       O117   2.166       .  S
Fe111       O124   2.155       .  S
Fe111       O116   2.051       .  S
Fe111       O122   1.957       .  S
Fe112       O119   2.040       .  S
Fe112       O123   2.032       .  S
Fe112       O128   2.035       .  S
Fe112      O1139   2.055   1_455  S
Fe112       O122   1.954       .  S
Fe113       O118   2.036       .  S
Fe113       O125   2.018       .  S
Fe113       O114   2.063       .  S
Fe113      O1155   2.072       .  S
Fe113       O122   1.951       .  S
O114        C121   1.266       .  A
O115      Fe1136   2.058       .  S
O115        C129   1.268       .  A
O116        C121   1.263       .  A
O117        C120   1.295       .  A
O118        C130   1.261       .  A
O119        C132   1.262       .  A
C120        O125   1.264       .  A
C120        C676   1.502       .  S
C121        C788   1.478       .  S
O123        C126   1.266       .  A
O124        C126   1.291       .  A
C126        C651   1.516       .  S
O127        C132   1.276       .  A
O128        C130   1.265       .  A
C129        O131   1.270       .  A
C129        C777   1.478       .  S
C130        C662   1.443       .  S
O131      Fe1137   2.067       .  S
C132        C707   1.488       .  S
Fe133       O149   2.130       .  S
Fe133       O139   2.131       .  S
Fe133       O146   2.128       .  S
Fe133       O138   2.089       .  S
Fe133       O144   1.946       .  S
Fe134       O141   2.047       .  S
Fe134       O145   2.064       .  S
Fe134       O150   2.046       .  S
Fe134      O1161   2.066       .  S
Fe134       O144   1.948       .  S
Fe135       O140   2.041       .  S
Fe135       O147   2.032       .  S
Fe135       O136   2.060       .  S
Fe135      O1177   2.070       .  S
Fe135       O144   1.958       .  S
O136        C143   1.274       .  A
O137      Fe1158   2.064       .  S
O137        C151   1.270       .  A
O138        C143   1.275       .  A
O139        C142   1.285       .  A
O140        C152   1.259       .  A
O141        C154   1.267       .  A
C142        O147   1.260       .  A
C142        C693   1.486       .  S
C143        C945   1.494       .  S
O145        C148   1.266       .  A
O146        C148   1.283       .  A
C148        C637   1.517       .  S
O149        C154   1.282       .  A
O150        C152   1.260       .  A
C151        O153   1.275       .  A
C151        C956   1.485   1_655  S
C152        C620   1.450       .  S
O153      Fe1159   2.075       .  S
C154        C606   1.502       .  S
Fe155       O171   2.134       .  S
Fe155       O161   2.129       .  S
Fe155       O168   2.115       .  S
Fe155       O160   2.085       .  S
Fe155       O166   1.933       .  S
Fe156       O163   2.039       .  S
Fe156       O167   2.074       .  S
Fe156       O172   2.032       .  S
Fe156      O1183   2.075       .  S
Fe156       O166   1.939       .  S
Fe157       O162   2.038       .  S
Fe157       O169   2.046       .  S
Fe157       O158   2.051       .  S
Fe157      O1199   2.071       .  S
Fe157       O166   1.950       .  S
O158        C165   1.271       .  A
O159      Fe1180   2.081       .  S
O159        C173   1.276       .  A
O160        C165   1.276       .  A
O161        C164   1.286       .  A
O162        C174   1.259       .  A
O163        C176   1.265       .  A
C164        O169   1.262       .  A
C164        C679   1.487       .  S
C165        C914   1.482       .  S
O167        C170   1.269       .  A
O168        C170   1.280       .  A
C170        C592   1.518       .  S
O171        C176   1.283       .  A
O172        C174   1.257       .  A
C173        O175   1.277       .  A
C173        C903   1.485       .  S
C174        C581   1.458       .  S
O175      Fe1181   2.068       .  S
C176        C609   1.496       .  S
Fe177       O193   2.118       .  S
Fe177       O183   2.152       .  S
Fe177       O190   2.153       .  S
Fe177       O182   2.066       .  S
Fe177       O188   1.975       .  S
Fe178       O181   2.054       .  S
Fe178       O185   2.031       .  S
Fe178       O189   2.050       .  S
Fe178       O194   2.023       .  S
Fe178       O188   1.973       .  S
Fe179       O197   2.064       .  S
Fe179       O184   2.052       .  S
Fe179       O191   2.040       .  S
Fe179       O180   2.048       .  S
Fe179       O188   1.969       .  S
O180        C187   1.263       .  A
O181        C195   1.269       .  A
O182        C187   1.268       .  A
O183        C186   1.292       .  A
O184        C196   1.263       .  A
O185        C198   1.257       .  A
C186        O191   1.268       .  A
C186        C550   1.518       .  S
C187        C525   1.489       .  S
O189        C192   1.269       .  A
O190        C192   1.290       .  A
C192        C634   1.517       .  S
O193        C198   1.275       .  A
O194        C196   1.260       .  A
C195        O197   1.271       .  A
C195        C539   1.475       .  S
C196       C1015   1.457       .  S
C198        C564   1.492       .  S
Fe199       O215   2.113       .  S
Fe199       O205   2.151       .  S
Fe199       O212   2.147       .  S
Fe199       O204   2.044       .  S
Fe199       O210   1.960       .  S
Fe200       O203   2.047       .  S
Fe200       O207   2.034       .  S
Fe200       O211   2.041       .  S
Fe200       O216   2.033       .  S
Fe200       O210   1.958       .  S
Fe201       O219   2.064       .  S
Fe201       O206   2.048       .  S
Fe201       O213   2.040       .  S
Fe201       O202   2.033       .  S
Fe201       O210   1.959       .  S
O202        C209   1.259       .  A
O203        C217   1.267       .  A
O204        C209   1.262       .  A
O205        C208   1.294       .  A
O206        C218   1.262       .  A
O207        C220   1.259       .  A
C208        O213   1.272       .  A
C208        C508   1.506       .  S
C209        C494   1.463       .  S
O211        C214   1.268       .  A
O212        C214   1.289       .  A
C214        C595   1.520       .  S
O215        C220   1.274       .  A
O216        C218   1.264       .  A
C217        O219   1.268       .  A
C217        C480   1.479       .  S
C218        C889   1.459       .  S
C220        C567   1.490       .  S
Fe221       O237   2.150       .  S
Fe221       O227   2.143       .  S
Fe221       O234   2.129       .  S
Fe221       O226   2.094       .  S
Fe221       O232   1.932       .  S
Fe222       O225   2.063       .  S
Fe222       O229   2.048       .  S
Fe222       O233   2.066       .  S
Fe222       O238   2.036       .  S
Fe222       O232   1.943       .  S
Fe223       O241   2.069       .  S
Fe223       O228   2.047       .  S
Fe223       O235   2.051       .  S
Fe223       O224   2.062       .  S
Fe223       O232   1.947       .  S
O224        C231   1.271       .  A
O225        C239   1.273       .  A
O226        C231   1.275       .  A
O227        C230   1.291       .  A
O228        C240   1.260       .  A
O229        C242   1.265       .  A
C230        O235   1.267       .  A
C230        C553   1.511       .  S
C231        C438   1.481       .  S
O233        C236   1.266       .  A
O234        C236   1.282       .  A
C236        C732   1.520       .  S
O237        C242   1.287       .  A
O238        C240   1.258       .  A
C239        O241   1.277       .  A
C239        C452   1.477       .  S
C240        C861   1.467       .  S
C242        C466   1.507       .  S
Fe243       O259   2.150       .  S
Fe243       O249   2.130       .  S
Fe243       O256   2.118       .  S
Fe243       O248   2.109       .  S
Fe243       O254   1.937       .  S
Fe244       O247   2.063       .  S
Fe244       O251   2.043       .  S
Fe244       O255   2.066       .  S
Fe244       O260   2.039       .  S
Fe244       O254   1.943       .  S
Fe245       O263   2.068       .  S
Fe245       O250   2.045       .  S
Fe245       O257   2.046       .  S
Fe245       O246   2.050       .  S
Fe245       O254   1.954       .  S
O246        C253   1.270       .  A
O247        C261   1.273       .  A
O248        C253   1.281       .  A
O249        C252   1.285       .  A
O250        C262   1.261       .  A
O251        C264   1.266       .  A
C252        O257   1.263       .  A
C252        C511   1.492       .  S
C253        C424   1.497       .  S
O255        C258   1.267       .  A
O256        C258   1.279       .  A
C258        C648   1.515       .  S
O259        C264   1.287       .  A
O260        C262   1.260       .  A
C261        O263   1.275       .  A
C261        C410   1.485       .  S
C262        C763   1.466       .  S
C264        C469   1.507       .  S
Fe265       O281   2.115       .  S
Fe265       O271   2.080       .  S
Fe265       O278   2.121       .  S
Fe265       O270   2.121       .  S
Fe265       O276   1.933       .  S
Fe266       O269   2.030       .  S
Fe266       O273   2.080       .  S
Fe266       O277   2.042       .  S
Fe266      O1306   2.080   1_455  S
Fe266       O276   1.935       .  S
Fe267       O285   2.057       .  S
Fe267       O279   2.054       .  S
Fe267       O268   2.046       .  S
Fe267      O1296   2.051       .  S
Fe267       O276   1.952       .  S
O268        C275   1.264       .  A
O269        C283   1.256       .  A
O270        C275   1.284       .  A
O271        C274   1.273       .  A
O272      Fe1291   2.057       .  S
O272        C284   1.274       .  A
O273        C286   1.272       .  A
C274        O279   1.273       .  A
C274        C536   1.485       .  S
C275        C385   1.482       .  S
O277        C280   1.266       .  A
O278        C280   1.280       .  A
C280        C396   1.495       .  S
O281        C286   1.279       .  A
O282      Fe1290   2.084       .  S
O282        C284   1.278       .  A
C283        O285   1.261       .  A
C283        C623   1.455       .  S
C284        C522   1.479       .  S
C286       C1001   1.520       .  S
Fe287       O303   2.115       .  S
Fe287       O293   2.071       .  S
Fe287       O300   2.127       .  S
Fe287       O292   2.138       .  S
Fe287       O298   1.937       .  S
Fe288       O291   2.045       .  S
Fe288       O295   2.071       .  S
Fe288       O299   2.042       .  S
Fe288      O1328   2.064       .  S
Fe288       O298   1.946       .  S
Fe289       O307   2.030       .  S
Fe289       O301   2.037       .  S
Fe289       O290   2.034       .  S
Fe289      O1318   2.049       .  S
Fe289       O298   1.947       .  S
O290        C297   1.262       .  A
O291        C305   1.261       .  A
O292        C297   1.288       .  A
O293        C296   1.274       .  A
O294      Fe1313   2.048       .  S
O294        C306   1.271   1_655  A
O295        C308   1.267       .  A
C296        O301   1.267       .  A
C296        C483   1.468       .  S
C297        C371   1.504       .  S
O299        C302   1.266       .  A
O300        C302   1.282       .  A
C302        C399   1.495       .  S
O303        C308   1.281       .  A
O304      Fe1312   2.062   1_455  S
O304        C306   1.273       .  A
C305        O307   1.259       .  A
C305        C578   1.460       .  S
C306        C497   1.476       .  S
C308        C875   1.514       .  S
Fe309       O325   2.116       .  S
Fe309       O315   2.079       .  S
Fe309       O322   2.145       .  S
Fe309       O314   2.122       .  S
Fe309       O320   1.934       .  S
Fe310       O313   2.027       .  S
Fe310       O317   2.071       .  S
Fe310       O321   2.041       .  S
Fe310      O1350   2.092   1_455  S
Fe310       O320   1.935       .  S
Fe311       O329   2.064       .  S
Fe311       O323   2.058       .  S
Fe311       O312   2.053       .  S
Fe311      O1340   2.068       .  S
Fe311       O320   1.943       .  S
O312        C319   1.268       .  A
O313        C327   1.254       .  A
O314        C319   1.288       .  A
O315        C318   1.272       .  A
O316      Fe1335   2.070       .  S
O316        C328   1.274       .  A
O317        C330   1.268       .  A
C318        O323   1.272       .  A
C318        C455   1.478       .  S
C319        C382   1.487       .  S
O321        C324   1.268       .  A
O322        C324   1.287       .  A
C324        C354   1.505       .  S
O325        C330   1.276       .  A
O326      Fe1334   2.095       .  S
O326        C328   1.277       .  A
C327        O329   1.265       .  A
C327        C721   1.458       .  S
C328        C441   1.485       .  S
C330        C844   1.517       .  S
Fe331       O347   2.121       .  S
Fe331       O337   2.077       .  S
Fe331       O344   2.132       .  S
Fe331       O336   2.137       .  S
Fe331       O342   1.931       .  S
Fe332       O335   2.024       .  S
Fe332       O339   2.085       .  S
Fe332       O343   2.043       .  S
Fe332      O1372   2.098       .  S
Fe332       O342   1.934       .  S
Fe333       O351   2.059       .  S
Fe333       O345   2.057       .  S
Fe333       O334   2.045       .  S
Fe333      O1362   2.061       .  S
Fe333       O342   1.950       .  S
O334        C341   1.266       .  A
O335        C349   1.252       .  A
O336        C341   1.291       .  A
O337        C340   1.274       .  A
O338      Fe1357   2.063       .  S
O338        C350   1.274       .  A
O339        C352   1.273       .  A
C340        O345   1.272       .  A
C340        C413   1.484       .  S
C341        C368   1.504       .  S
O343        C346   1.265       .  A
O344        C346   1.282       .  A
C346        C357   1.498       .  S
O347        C352   1.282       .  A
O348      Fe1356   2.095       .  S
O348        C350   1.280       .  A
C349        O351   1.262       .  A
C349        C665   1.463       .  S
C350        C427   1.495   1_655  S
C352        C746   1.521       .  S
C353        C358   1.407       .  A
C353       C1378   1.413       .  A
C353        H360   1.085       .  S
C354        C355   1.414       .  A
C354       C1377   1.413   1_455  A
C355        C356   1.409       .  A
C355        N362   1.428       .  S
C356       C1381   1.410   1_455  A
C356        H361   1.085       .  S
C357        C358   1.411       .  A
C357       C1380   1.410       .  A
C358        N359   1.429       .  S
N359        O363   1.262       .  A
N359        O364   1.262       .  A
N362        O366   1.262       .  A
N362        O365   1.262       .  A
C367        C368   1.421       .  A
C367        C372   1.408       .  A
C367        H374   1.084       .  S
C368        C369   1.405       .  A
C369        C370   1.409       .  A
C369       N1400   1.428       .  S
C370        C371   1.421       .  A
C370        H375   1.085       .  S
C371        C372   1.404       .  A
C372        N373   1.428       .  S
N373        O377   1.262       .  A
N373        O378   1.262       .  A
N376       C1393   1.428       .  S
N376        O380   1.262       .  A
N376        O379   1.262       .  A
C381        C382   1.409   1_565  A
C381        C386   1.409       .  A
C381        H388   1.085   1_565  S
C382        C383   1.411       .  A
C383        C384   1.408   1_545  A
C383        N390   1.428       .  S
C384        C385   1.406       .  A
C384        H389   1.085       .  S
C385        C386   1.409       .  A
C386        N387   1.429       .  S
N387       O1415   1.262       .  A
N387        O392   1.262       .  A
N390        O394   1.262       .  A
N390        O393   1.262       .  A
O391       N1411   1.262       .  A
C395        C400   1.407       .  A
C395       C1420   1.412       .  A
C395        H402   1.085       .  S
C396        C397   1.411       .  A
C396       C1419   1.411   1_455  A
C397        C398   1.405       .  A
C397        N404   1.429       .  S
C398       C1423   1.411   1_455  A
C398        H403   1.085       .  S
C399        C400   1.410       .  A
C399       C1422   1.410       .  A
C400        N401   1.429       .  S
N401        O405   1.262       .  A
N401        O406   1.262       .  A
N404        O408   1.262       .  A
N404        O407   1.262       .  A
C409        C410   1.410       .  A
C409        C414   1.395       .  A
C409        H416   1.084       .  S
C410        C411   1.410       .  A
C411        C412   1.399       .  A
C411        N418   1.429       .  S
C412        C413   1.410       .  A
C412        H417   1.084       .  S
C413        C414   1.410       .  A
C414        N415   1.429       .  S
N415        O419   1.262       .  A
N415        O420   1.262       .  A
N418        O422   1.262       .  A
N418        O421   1.262       .  A
C423        C424   1.407       .  A
C423        C428   1.405       .  A
C423        H430   1.084       .  S
C424        C425   1.418       .  A
C425        C426   1.399       .  A
C425        N432   1.429       .  S
C426        C427   1.405       .  A
C426        H431   1.084       .  S
C427        C428   1.417       .  A
C428        N429   1.429       .  S
N429        O433   1.262   1_455  A
N429        O434   1.262       .  A
N432        O436   1.262       .  A
N432        O435   1.262       .  A
C437        C438   1.405       .  A
C437        C442   1.403       .  A
C437        H444   1.087       .  S
C438        C439   1.409       .  A
C439        C440   1.401   1_565  A
C439        N446   1.429       .  S
C440        C441   1.406       .  A
C440        H445   1.088       .  S
C441        C442   1.412   1_545  A
C442        N443   1.428       .  S
N443        O447   1.262       .  A
N443        O448   1.262   1_565  A
N446        O450   1.262   1_565  A
N446        O449   1.262       .  A
C451        C452   1.407       .  A
C451        C456   1.394       .  A
C451        H458   1.082       .  S
C452        C453   1.408   1_565  A
C453        C454   1.402       .  A
C453        N460   1.431       .  S
C454        C455   1.408       .  A
C454        H459   1.081       .  S
C455        C456   1.408   1_545  A
C456        N457   1.430       .  S
N457        O461   1.262       .  A
N457        O462   1.262   1_565  A
N460        O464   1.262       .  A
N460        O463   1.262   1_545  A
C465        C466   1.403       .  A
C465        C470   1.410       .  A
C465        H472   1.084       .  S
C466        C467   1.422       .  A
C467        C468   1.413       .  A
C467        N474   1.429       .  S
C468        C469   1.404       .  A
C468        H473   1.084       .  S
C469        C470   1.422       .  A
C470        N471   1.430       .  S
N471        O475   1.262       .  A
N471        O476   1.262       .  A
N474        O478   1.262       .  A
N474        O477   1.262       .  A
C479        C480   1.407       .  A
C479        C484   1.397       .  A
C479        H486   1.083       .  S
C480        C481   1.417       .  A
C481        C482   1.390       .  A
C481        N488   1.430       .  S
C482        C483   1.398       .  A
C482        H487   1.084       .  S
C483        C484   1.410       .  A
C484        N485   1.430       .  S
N485        O489   1.262       .  A
N485        O490   1.262       .  A
N488        O492   1.262       .  A
N488        O491   1.262       .  A
C493        C494   1.401       .  A
C493        C498   1.394       .  A
C493        H500   1.085       .  S
C494        C495   1.407       .  A
C495        C496   1.390       .  A
C495        N502   1.431       .  S
C496        C497   1.408       .  A
C496        H501   1.085       .  S
C497        C498   1.413       .  A
C498        N499   1.429       .  S
N499        O503   1.262       .  A
N499        O504   1.262       .  A
N502        O506   1.262       .  A
N502        O505   1.262       .  A
C507        C508   1.417       .  A
C507        C512   1.409       .  A
C507        H514   1.084       .  S
C508        C509   1.413       .  A
C509        C510   1.410       .  A
C509        N516   1.428       .  S
C510        C511   1.411       .  A
C510        H515   1.085       .  S
C511        C512   1.406       .  A
C512        N513   1.428       .  S
N513        O517   1.262       .  A
N513        O518   1.262       .  A
N516        O520   1.262       .  A
N516        O519   1.262       .  A
C521        C522   1.401       .  A
C521        C526   1.396       .  A
C521        H528   1.085       .  S
C522        C523   1.412   1_565  A
C523        C524   1.401       .  A
C523        N530   1.429       .  S
C524        C525   1.407       .  A
C524        H529   1.085       .  S
C525        C526   1.418   1_545  A
C526        N527   1.429       .  S
N527        O531   1.262       .  A
N527        O532   1.262       .  A
N530        O534   1.262       .  A
N530        O533   1.262       .  A
C535        C536   1.406   1_545  A
C535        C540   1.398       .  A
C535        H542   1.084       .  S
C536        C537   1.418       .  A
C537        C538   1.395       .  A
C537        N544   1.429       .  S
C538        C539   1.401   1_565  A
C538        H543   1.085       .  S
C539        C540   1.412       .  A
C540        N541   1.430       .  S
N541        O545   1.262       .  A
N541        O546   1.262       .  A
N544        O548   1.262       .  A
N544        O547   1.262       .  A
C549        C550   1.423   1_565  A
C549        C554   1.412       .  A
C549        H556   1.084       .  S
C550        C551   1.411       .  A
C551        C552   1.411       .  A
C551        N558   1.428       .  S
C552        C553   1.419   1_545  A
C552        H557   1.084       .  S
C553        C554   1.406       .  A
C554        N555   1.427       .  S
N555        O559   1.262       .  A
N555        O560   1.262       .  A
N558        O562   1.262       .  A
N558        O561   1.262       .  A
C563        C564   1.401       .  A
C563        C568   1.408       .  A
C563        H570   1.084       .  S
C564        C565   1.419       .  A
C565        C566   1.407       .  A
C565        N572   1.429       .  S
C566        C567   1.400       .  A
C566        H571   1.085       .  S
C567        C568   1.418       .  A
C568        N569   1.429       .  S
N569        O573   1.262       .  A
N569        O574   1.262       .  A
N572        O576   1.262       .  A
N572        O575   1.262       .  A
C577        C582   1.386       .  A
C577       C1602   1.408   1_455  A
C577        H584   1.085   1_455  S
C578        C579   1.404       .  A
C578       C1601   1.409       .  A
C579        C580   1.391       .  A
C579        N586   1.432       .  S
C580       C1605   1.408       .  A
C580        H585   1.085       .  S
C581        C582   1.404       .  A
C581       C1604   1.409       .  A
C582        N583   1.430       .  S
N583        O587   1.261       .  A
N583        O588   1.262       .  A
N586        O590   1.262       .  A
N586        O589   1.262       .  A
C591        C592   1.418       .  A
C591        C596   1.417       .  A
C591        H598   1.084       .  S
C592        C593   1.414       .  A
C593        C594   1.408       .  A
C593        N600   1.429       .  S
C594        C595   1.417       .  A
C594        H599   1.084       .  S
C595        C596   1.415       .  A
C596        N597   1.428       .  S
N597        O601   1.262       .  A
N597        O602   1.262       .  A
N600        O604   1.262       .  A
N600        O603   1.262       .  A
C605        C610   1.407       .  A
C605       C1630   1.412   1_455  A
C605        H612   1.083       .  S
C606        C607   1.411       .  A
C606       C1629   1.411       .  A
C607        C608   1.408       .  A
C607        N614   1.428       .  S
C608       C1633   1.411       .  A
C608        H613   1.085       .  S
C609        C610   1.409       .  A
C609       C1632   1.411   1_455  A
C610        N611   1.429       .  S
N611        O615   1.262       .  A
N611        O616   1.262       .  A
N614        O618   1.262       .  A
N614        O617   1.262       .  A
C619        C620   1.404   1_565  A
C619        C624   1.390       .  A
C619        H626   1.083       .  S
C620        C621   1.397       .  A
C621       C1646   1.394       .  A
C621       N1652   1.430       .  S
C622        C623   1.410   1_645  A
C622       C1645   1.395       .  A
C622        H627   1.071       .  S
C623       C1648   1.400       .  A
C624       C1647   1.402       .  A
C624        N625   1.429       .  S
N625        O629   1.261       .  A
N625       O1654   1.262       .  A
N628       C1645   1.431       .  S
N628        O632   1.260       .  A
N628       O1655   1.262   1_545  A
O630       N1649   1.262       .  A
O631       N1652   1.262   1_565  A
C633        C634   1.405       .  A
C633        C638   1.416       .  A
C633        H640   1.084       .  S
C634        C635   1.424       .  A
C635        C636   1.411       .  A
C635        N642   1.430       .  S
C636        C637   1.403       .  A
C636        H641   1.084       .  S
C637        C638   1.428       .  A
C638        N639   1.431       .  S
N639        O643   1.262       .  A
N639        O644   1.261       .  A
N642        O646   1.260       .  A
N642        O645   1.262       .  A
C647        C648   1.418       .  A
C647        C652   1.414   1_556  A
C647        H654   1.084       .  S
C648        C649   1.413       .  A
C649        C650   1.409       .  A
C649        N656   1.429       .  S
C650        C651   1.417   1_556  A
C650        H655   1.084       .  S
C651        C652   1.412       .  A
C652        N653   1.428       .  S
N653        O657   1.261       .  A
N653        O658   1.262       .  A
N656        O660   1.262       .  A
N656        O659   1.262       .  A
C661        C662   1.401       .  A
C661       C1690   1.394   1_455  A
C661        H668   1.085       .  S
C662        C663   1.401   1_554  A
C663       C1688   1.388   1_455  A
C663        N670   1.433       .  S
C664        C665   1.406       .  A
C664       C1687   1.390       .  A
C664        H669   1.083       .  S
C665        C666   1.408   1_556  A
C666       C1685   1.394       .  A
C666        N667   1.428       .  S
N667       O1695   1.262       .  A
N667        O672   1.262       .  A
N670       O1698   1.262       .  A
N670        O673   1.262       .  A
O671       N1691   1.262       .  A
O674       N1694   1.262       .  A
C675        C676   1.406       .  A
C675        C680   1.413       .  A
C675        H682   1.084       .  S
C676        C677   1.425       .  A
C677        C678   1.407       .  A
C677        N684   1.430       .  S
C678        C679   1.398       .  A
C678        H683   1.085       .  S
C679        C680   1.418       .  A
C680        N681   1.429       .  S
N681        O685   1.262       .  A
N681        O686   1.262       .  A
N684        O688   1.262   1_455  A
N684       O1711   1.262       .  A
O687       N1708   1.262       .  A
C689        C690   1.407       .  A
C689        C694   1.409   1_565  A
C689        H696   1.085       .  S
C690        C691   1.409       .  A
C691        C692   1.408   1_565  A
C691       N1722   1.429       .  S
C692        C693   1.410       .  A
C692        H697   1.085       .  S
C693        C694   1.411       .  A
C694        N695   1.427       .  S
N695        O699   1.262       .  A
N695        O700   1.262       .  A
N698       C1715   1.428       .  S
N698        O702   1.262       .  A
N698        O701   1.262       .  A
C703        C704   1.401       .  A
C703        C708   1.402       .  A
C703        H710   1.085       .  S
C704       C1729   1.420       .  A
C705        C706   1.410       .  A
C705       C1728   1.420   1_455  A
C705        N712   1.430       .  S
C706        C707   1.403       .  A
C706        H711   1.084       .  S
C707       C1732   1.415   1_455  A
C708       C1731   1.415       .  A
C708        N709   1.428       .  S
N709        O713   1.261       .  A
N709        O714   1.262       .  A
N712        O716   1.262       .  A
N712        O715   1.262       .  A
C717        C718   1.406       .  A
C717        C722   1.393   1_554  A
C717        H724   1.089       .  S
C718       C1743   1.407   1_565  A
C719        C720   1.390   1_654  A
C719       C1742   1.406   1_545  A
C719        N726   1.430       .  S
C720        C721   1.405       .  A
C720        H725   1.089       .  S
C721       C1746   1.405   1_545  A
C722       C1745   1.403   1_565  A
C722        N723   1.433       .  S
N723        O727   1.263       .  A
N723        O728   1.262       .  A
N726        O730   1.262   1_554  A
N726        O729   1.262       .  A
C731        C732   1.407       .  A
C731        C736   1.415       .  A
C731        H738   1.083       .  S
C732        C733   1.428       .  A
C733        C734   1.412   1_556  A
C733        N740   1.431       .  S
C734        C735   1.403       .  A
C734        H739   1.084       .  S
C735        C736   1.425   1_554  A
C736        N737   1.430       .  S
N737        O741   1.262   1_556  A
N737        O742   1.262       .  A
N740        O744   1.262   1_556  A
N740        O743   1.262       .  A
C745        C746   1.416       .  A
C745        C750   1.416   1_556  A
C745        H752   1.084       .  S
C746        C747   1.415       .  A
C747        C748   1.415       .  A
C747        N754   1.428       .  S
C748        C749   1.415   1_556  A
C748        H753   1.085       .  S
C749        C750   1.415       .  A
C750        N751   1.429       .  S
N751        O755   1.262       .  A
N751        O756   1.261       .  A
N754        O758   1.262       .  A
N754        O757   1.262       .  A
C759        C760   1.407       .  A
C759        C764   1.389       .  A
C759        H766   1.084       .  S
C760        C761   1.407   1_554  A
C761        C762   1.393       .  A
C761        N768   1.433       .  S
C762        C763   1.409       .  A
C762        H767   1.084       .  S
C763        C764   1.405   1_556  A
C764        N765   1.430       .  S
N765        O769   1.262       .  A
N765        O770   1.262       .  A
N768        O772   1.262       .  A
N768        O771   1.262       .  A
C773        C774   1.405       .  A
C773        C778   1.400       .  A
C773        H780   1.083       .  S
C774        C775   1.415       .  A
C775        C776   1.394       .  A
C775        N782   1.430       .  S
C776        C777   1.403       .  A
C776        H781   1.084       .  S
C777        C778   1.413       .  A
C778        N779   1.431       .  S
N779        O783   1.262       .  A
N779        O784   1.262       .  A
N782        O786   1.262       .  A
N782        O785   1.262       .  A
C787        C788   1.401       .  A
C787        C792   1.398       .  A
C787        H794   1.085       .  S
C788        C789   1.411       .  A
C789        C790   1.398       .  A
C789        N796   1.429       .  S
C790        C791   1.407       .  A
C790        H795   1.084       .  S
C791        C792   1.419       .  A
C792        N793   1.430       .  S
N793        O797   1.262       .  A
N793        O798   1.262       .  A
N796        O800   1.262       .  A
N796        O799   1.262       .  A
C801        C802   1.405       .  A
C801        C806   1.396       .  A
C801        H808   1.085       .  S
C802        C803   1.408   1_565  A
C803        C804   1.392       .  A
C803        N810   1.429       .  S
C804        C805   1.407       .  A
C804        H809   1.085       .  S
C805        C806   1.411   1_545  A
C806        N807   1.430       .  S
N807        O811   1.262       .  A
N807        O812   1.262       .  A
N810        O814   1.262       .  A
N810        O813   1.262   1_545  A
C815        C816   1.404       .  A
C815        C820   1.388       .  A
C815        H822   1.085       .  S
C816        C817   1.409   1_565  A
C817        C818   1.395       .  A
C817        N824   1.429       .  S
C818        C819   1.407       .  A
C818        H823   1.085       .  S
C819        C820   1.410   1_545  A
C820        N821   1.430       .  S
N821        O825   1.262       .  A
N821        O826   1.262       .  A
N824        O828   1.262   1_455  A
N824        O827   1.262       .  A
C829        C830   1.404       .  A
C829        C834   1.407       .  A
C829        H836   1.084       .  S
C830        C831   1.423       .  A
C831        C832   1.406       .  A
C831        N838   1.430       .  S
C832        C833   1.401       .  A
C832        H837   1.085       .  S
C833        C834   1.416       .  A
C834        N835   1.428       .  S
N835        O839   1.261       .  A
N835        O840   1.262       .  A
N838        O842   1.262       .  A
N838        O841   1.262       .  A
C843        C844   1.415       .  A
C843        C848   1.415   1_556  A
C843        H850   1.084       .  S
C844        C845   1.414       .  A
C845        C846   1.413       .  A
C845        N852   1.429       .  S
C846        C847   1.417   1_556  A
C846        H851   1.084       .  S
C847        C848   1.416       .  A
C848        N849   1.428       .  S
N849        O853   1.262       .  A
N849        O854   1.262       .  A
N852        O856   1.262       .  A
N852        O855   1.262       .  A
C857        C858   1.403   1_556  A
C857        C862   1.390       .  A
C857        H864   1.084       .  S
C858        C859   1.411   1_545  A
C859        C860   1.395   1_554  A
C859        N866   1.436       .  S
C860        C861   1.405       .  A
C860        H865   1.083       .  S
C861        C862   1.410   1_565  A
C862        N863   1.430       .  S
N863        O867   1.262       .  A
N863        O868   1.262       .  A
N866        O870   1.262       .  A
N866        O869   1.263       .  A
C871        C872   1.407       .  A
C871        C876   1.417       .  A
C871        H878   1.084       .  S
C872        C873   1.429       .  A
C873        C874   1.410       .  A
C873        N880   1.432       .  S
C874        C875   1.401       .  A
C874        H879   1.084       .  S
C875        C876   1.423       .  A
C876        N877   1.429       .  S
N877        O881   1.261       .  A
N877        O882   1.262       .  A
N880        O884   1.262       .  A
N880        O883   1.263       .  A
C885        C886   1.408       .  A
C885        C890   1.395       .  A
C885        H892   1.082       .  S
C886        C887   1.418       .  A
C887        C888   1.391       .  A
C887        N894   1.430       .  S
C888        C889   1.399       .  A
C888        H893   1.085       .  S
C889        C890   1.402       .  A
C890        N891   1.431       .  S
N891        O895   1.261       .  A
N891        O896   1.262       .  A
N894        O898   1.262       .  A
N894        O897   1.262       .  A
C899        C900   1.405       .  A
C899        C904   1.399       .  A
C899        H906   1.084       .  S
C900        C901   1.418       .  A
C901        C902   1.402       .  A
C901        N908   1.429       .  S
C902        C903   1.404       .  A
C902        H907   1.085       .  S
C903        C904   1.414       .  A
C904        N905   1.429       .  S
N905        O909   1.262       .  A
N905        O910   1.262       .  A
N908        O912   1.262       .  A
N908        O911   1.262       .  A
C913        C914   1.406       .  A
C913        C918   1.399       .  A
C913        H920   1.085       .  S
C914        C915   1.411       .  A
C915        C916   1.396       .  A
C915        N922   1.430       .  S
C916        C917   1.409       .  A
C916        H921   1.085       .  S
C917        C918   1.411       .  A
C918        N919   1.428       .  S
N919        O923   1.262       .  A
N919        O924   1.261       .  A
N922        O926   1.262       .  A
N922        O925   1.262       .  A
C927        C928   1.409       .  A
C927        C932   1.409       .  A
C927        H934   1.085       .  S
C928        C929   1.409       .  A
C929        C930   1.411       .  A
C929        N936   1.428       .  S
C930        C931   1.410       .  A
C930        H935   1.085       .  S
C931        C932   1.409       .  A
C932        N933   1.429       .  S
N933        O937   1.262       .  A
N933        O938   1.262       .  A
N936        O940   1.262       .  A
N936        O939   1.262       .  A
C941        C942   1.405   1_545  A
C941        C946   1.402       .  A
C941        H948   1.084       .  S
C942        C943   1.418       .  A
C943        C944   1.399       .  A
C943        N950   1.429       .  S
C944        C945   1.405   1_565  A
C944        H949   1.084       .  S
C945        C946   1.418       .  A
C946        N947   1.429       .  S
N947        O951   1.261       .  A
N947        O952   1.262       .  A
N950        O954   1.262       .  A
N950        O953   1.262       .  A
C955        C956   1.403   1_565  A
C955        C960   1.404       .  A
C955        H962   1.084       .  S
C956        C957   1.414       .  A
C957        C958   1.395       .  A
C957        N964   1.429       .  S
C958        C959   1.403   1_545  A
C958        H963   1.085       .  S
C959        C960   1.419       .  A
C960        N961   1.430       .  S
N961        O965   1.262       .  A
N961        O966   1.262       .  A
N964        O968   1.261       .  A
N964        O967   1.262       .  A
C969        C970   1.417   1_565  A
C969        C974   1.409       .  A
C969        H976   1.085       .  S
C970        C971   1.404       .  A
C971        C972   1.409       .  A
C971        N978   1.428       .  S
C972        C973   1.418   1_545  A
C972        H977   1.085       .  S
C973        C974   1.405       .  A
C974        N975   1.428       .  S
N975        O979   1.262       .  A
N975        O980   1.262       .  A
N978        O982   1.262       .  A
N978        O981   1.262       .  A
C983        C984   1.412       .  A
C983        C988   1.405       .  A
C983        H990   1.085       .  S
C984        C985   1.413       .  A
C985        C986   1.410       .  A
C985        N992   1.428       .  S
C986        C987   1.411       .  A
C986        H991   1.085       .  S
C987        C988   1.411       .  A
C988        N989   1.429       .  S
N989        O993   1.262       .  A
N989        O994   1.262       .  A
N992        O996   1.262       .  A
N992        O995   1.262       .  A
C997        C998   1.416       .  A
C997       C1002   1.414       .  A
C997       H1004   1.084       .  S
C998        C999   1.415       .  A
C999       C1000   1.415       .  A
C999       N1006   1.428       .  S
C1000      C1001   1.416       .  A
C1000      H1005   1.084       .  S
C1001      C1002   1.416       .  A
C1002      N1003   1.429       .  S
N1003      O1007   1.262       .  A
N1003      O1008   1.262       .  A
N1006      O1010   1.261       .  A
N1006      O1009   1.262       .  A
C1011      C1012   1.403   1_545  A
C1011      C1016   1.389       .  A
C1011      H1018   1.084       .  S
C1012      C1013   1.407       .  A
C1013      C1014   1.398       .  A
C1013      N1020   1.428       .  S
C1014      C1015   1.405   1_565  A
C1014      H1019   1.085       .  S
C1015      C1016   1.407       .  A
C1016      N1017   1.433       .  S
N1017      O1021   1.262       .  A
N1017      O1022   1.262       .  A
N1020      O1024   1.262       .  A
N1020      O1023   1.262       .  A
Fe1025     O1041   2.130       .  S
Fe1025     O1031   2.078       .  S
Fe1025     O1038   2.134       .  S
Fe1025     O1030   2.141       .  S
Fe1025     O1036   1.947       .  S
Fe1026     O1029   2.026       .  S
Fe1026     O1033   2.070       .  S
Fe1026     O1037   2.038       .  S
Fe1026     O1042   2.074       .  S
Fe1026     O1036   1.950       .  S
Fe1027     O1045   2.054       .  S
Fe1027     O1032   2.077       .  S
Fe1027     O1039   2.054       .  S
Fe1027     O1028   2.038       .  S
Fe1027     O1036   1.956       .  S
O1028      C1035   1.266       .  A
O1029      C1043   1.256       .  A
O1030      C1035   1.292       .  A
O1031      C1034   1.268       .  A
O1032      C1044   1.276       .  A
O1033      C1046   1.268       .  A
C1034      O1039   1.270       .  A
C1034      C1983   1.486       .  S
C1035      C1997   1.501       .  S
O1037      C1040   1.265       .  A
O1038      C1040   1.282       .  A
C1040      C2008   1.502       .  S
O1041      C1046   1.282       .  A
O1042      C1044   1.272       .  A
C1043      O1045   1.261       .  A
C1043      C2036   1.468       .  S
C1044      C1966   1.495       .  S
C1046      C2022   1.520       .  S
Fe1047     O1063   2.134       .  S
Fe1047     O1053   2.077       .  S
Fe1047     O1060   2.125       .  S
Fe1047     O1052   2.136       .  S
Fe1047     O1058   1.942       .  S
Fe1048     O1051   2.022       .  S
Fe1048     O1055   2.069       .  S
Fe1048     O1059   2.047       .  S
Fe1048     O1064   2.064       .  S
Fe1048     O1058   1.946       .  S
Fe1049     O1067   2.060       .  S
Fe1049     O1054   2.073       .  S
Fe1049     O1061   2.061       .  S
Fe1049     O1050   2.043       .  S
Fe1049     O1058   1.967       .  S
O1050      C1057   1.266       .  A
O1051      C1065   1.256       .  A
O1052      C1057   1.290       .  A
O1053      C1056   1.269       .  A
O1054      C1066   1.274       .  A
O1055      C1068   1.267       .  A
C1056      O1061   1.271       .  A
C1056      C1924   1.490       .  S
C1057      C1952   1.491       .  S
O1059      C1062   1.266       .  A
O1060      C1062   1.280       .  A
C1062      C2011   1.496       .  S
O1063      C1068   1.284       .  A
O1064      C1066   1.273       .  A
C1065      O1067   1.260       .  A
C1065      C1910   1.476       .  S
C1066      C1941   1.486       .  S
C1068      C1896   1.518       .  S
Fe1069     O1085   2.130       .  S
Fe1069     O1075   2.064       .  S
Fe1069     O1082   2.128       .  S
Fe1069     O1074   2.136       .  S
Fe1069     O1080   1.929       .  S
Fe1070     O1073   2.040       .  S
Fe1070     O1077   2.065       .  S
Fe1070     O1081   2.044       .  S
Fe1070     O1086   2.063       .  S
Fe1070     O1080   1.938       .  S
Fe1071     O1089   2.045       .  S
Fe1071     O1076   2.050       .  S
Fe1071     O1083   2.043       .  S
Fe1071     O1072   2.039       .  S
Fe1071     O1080   1.941       .  S
O1072      C1079   1.265       .  A
O1073      C1087   1.260       .  A
O1074      C1079   1.290       .  A
O1075      C1078   1.271       .  A
O1076      C1088   1.271       .  A
O1077      C1090   1.267       .  A
C1078      O1083   1.269       .  A
C1078      C1843   1.470       .  S
C1079      C1994   1.499       .  S
O1081      C1084   1.266       .  A
O1082      C1084   1.283       .  A
C1084      C1854   1.498       .  S
O1085      C1090   1.280       .  A
O1086      C1088   1.273       .  A
C1087      O1089   1.261       .  A
C1087      C1882   1.464       .  S
C1088      C1829   1.474       .  S
C1090      C1871   1.521       .  S
Fe1091     O1107   2.120       .  S
Fe1091     O1097   2.073       .  S
Fe1091     O1104   2.132       .  S
Fe1091     O1096   2.133       .  S
Fe1091     O1102   1.939       .  S
Fe1092     O1095   2.032       .  S
Fe1092     O1099   2.078       .  S
Fe1092     O1103   2.041       .  S
Fe1092     O1108   2.079       .  S
Fe1092     O1102   1.947       .  S
Fe1093     O1111   2.040       .  S
Fe1093     O1098   2.058       .  S
Fe1093     O1105   2.051       .  S
Fe1093     O1094   2.040       .  S
Fe1093     O1102   1.951       .  S
O1094      C1101   1.262       .  A
O1095      C1109   1.259       .  A
O1096      C1101   1.288       .  A
O1097      C1100   1.272       .  A
O1098      C1110   1.274       .  A
O1099      C1112   1.270       .  A
C1100      O1105   1.271       .  A
C1100      C1798   1.485       .  S
C1101      C1955   1.489       .  S
O1103      C1106   1.265       .  A
O1104      C1106   1.283       .  A
C1106      C1857   1.494       .  S
O1107      C1112   1.279       .  A
O1108      C1110   1.273       .  A
C1109      O1111   1.262       .  A
C1109      C1784   1.462       .  S
C1110      C1815   1.488       .  S
C1112      C1773   1.519       .  S
Fe1113     O1129   2.120       .  S
Fe1113     O1119   2.125       .  S
Fe1113     O1126   2.122       .  S
Fe1113     O1118   2.068       .  S
Fe1113     O1124   1.924       .  S
Fe1114     O1121   2.049       .  S
Fe1114     O1125   2.066       .  S
Fe1114     O1130   2.034       .  S
Fe1114     O1124   1.934       .  S
Fe1115     O1120   2.058       .  S
Fe1115     O1127   2.052       .  S
Fe1115     O1116   2.043       .  S
Fe1115     O1124   1.951       .  S
O1116      C1123   1.269       .  A
O1117      C1131   1.273       .  A
O1118      C1123   1.273       .  A
O1119      C1122   1.286       .  A
O1120      C1132   1.262       .  A
O1121      C1134   1.266       .  A
C1122      O1127   1.265       .  A
C1122      C1714   1.486       .  S
C1123      C1826   1.472       .  S
O1125      C1128   1.266       .  A
O1126      C1128   1.280       .  A
C1128      C1759   1.519       .  S
O1129      C1134   1.282       .  A
O1130      C1132   1.257       .  A
C1131      O1133   1.273       .  A
C1131      C1840   1.468       .  S
C1132      C1742   1.460       .  S
C1134      C1728   1.494       .  S
Fe1135     O1151   2.112       .  S
Fe1135     O1141   2.159       .  S
Fe1135     O1148   2.152       .  S
Fe1135     O1140   2.050       .  S
Fe1135     O1146   1.957       .  S
Fe1136     O1143   2.043       .  S
Fe1136     O1147   2.038       .  S
Fe1136     O1152   2.036       .  S
Fe1136     O1146   1.952       .  S
Fe1137     O1142   2.040       .  S
Fe1137     O1149   2.024       .  S
Fe1137     O1138   2.065       .  S
Fe1137     O1146   1.953       .  S
O1138      C1145   1.267       .  A
O1139      C1153   1.268       .  A
O1140      C1145   1.264       .  A
O1141      C1144   1.292       .  A
O1142      C1154   1.262       .  A
O1143      C1156   1.263       .  A
C1144      O1149   1.263       .  A
C1144      C1700   1.490       .  S
C1145      C1812   1.472       .  S
O1147      C1150   1.267       .  A
O1148      C1150   1.290       .  A
C1150      C1675   1.516       .  S
O1151      C1156   1.276       .  A
O1152      C1154   1.266       .  A
C1153      O1155   1.271   1_655  A
C1153      C1801   1.475       .  S
C1154      C1686   1.444       .  S
C1156      C1731   1.488       .  S
Fe1157     O1173   2.136       .  S
Fe1157     O1163   2.135       .  S
Fe1157     O1170   2.132       .  S
Fe1157     O1162   2.090       .  S
Fe1157     O1168   1.947       .  S
Fe1158     O1165   2.045       .  S
Fe1158     O1169   2.063       .  S
Fe1158     O1174   2.046       .  S
Fe1158     O1168   1.950       .  S
Fe1159     O1164   2.039       .  S
Fe1159     O1171   2.030       .  S
Fe1159     O1160   2.063       .  S
Fe1159     O1168   1.956       .  S
O1160      C1167   1.274       .  A
O1161      C1175   1.272       .  A
O1162      C1167   1.275       .  A
O1163      C1166   1.287       .  A
O1164      C1176   1.260       .  A
O1165      C1178   1.267       .  A
C1166      O1171   1.260       .  A
C1166      C1717   1.488       .  S
C1167      C1969   1.496       .  S
O1169      C1172   1.265       .  A
O1170      C1172   1.282       .  A
C1172      C1661   1.518       .  S
O1173      C1178   1.284       .  A
O1174      C1176   1.261       .  A
C1175      O1177   1.275       .  A
C1175      C1980   1.481       .  S
C1176      C1644   1.448       .  S
C1178      C1630   1.504       .  S
Fe1179     O1195   2.132       .  S
Fe1179     O1185   2.133       .  S
Fe1179     O1192   2.116       .  S
Fe1179     O1184   2.086       .  S
Fe1179     O1190   1.936       .  S
Fe1180     O1187   2.038       .  S
Fe1180     O1191   2.078       .  S
Fe1180     O1196   2.034       .  S
Fe1180     O1190   1.940       .  S
Fe1181     O1186   2.035       .  S
Fe1181     O1193   2.042       .  S
Fe1181     O1182   2.049       .  S
Fe1181     O1190   1.947       .  S
O1182      C1189   1.270       .  A
O1183      C1197   1.274   1_455  A
O1184      C1189   1.276       .  A
O1185      C1188   1.286       .  A
O1186      C1198   1.259       .  A
O1187      C1200   1.265       .  A
C1188      O1193   1.262       .  A
C1188      C1703   1.488       .  S
C1189      C1938   1.483       .  S
O1191      C1194   1.271       .  A
O1192      C1194   1.281       .  A
C1194      C1616   1.519       .  S
O1195      C1200   1.282       .  A
O1196      C1198   1.257       .  A
C1197      O1199   1.278   1_655  A
C1197      C1927   1.486       .  S
C1198      C1605   1.459       .  S
C1200      C1633   1.495       .  S
Fe1201     O1217   2.117       .  S
Fe1201     O1207   2.147       .  S
Fe1201     O1214   2.134       .  S
Fe1201     O1206   2.064       .  S
Fe1201     O1212   1.959       .  S
Fe1202     O1205   2.063       .  S
Fe1202     O1209   2.048       .  S
Fe1202     O1213   2.069       .  S
Fe1202     O1218   2.050       .  S
Fe1202     O1212   1.966       .  S
Fe1203     O1221   2.063       .  S
Fe1203     O1208   2.033       .  S
Fe1203     O1215   2.035       .  S
Fe1203     O1204   2.053       .  S
Fe1203     O1212   1.953       .  S
O1204      C1211   1.268       .  A
O1205      C1219   1.269       .  A
O1206      C1211   1.269       .  A
O1207      C1210   1.291       .  A
O1208      C1220   1.263       .  A
O1209      C1222   1.265       .  A
C1210      O1215   1.263       .  A
C1210      C1574   1.511       .  S
C1211      C1549   1.479       .  S
O1213      C1216   1.268       .  A
O1214      C1216   1.284       .  A
C1216      C1658   1.521       .  S
O1217      C1222   1.279       .  A
O1218      C1220   1.265       .  A
C1219      O1221   1.272       .  A
C1219      C1563   1.485       .  S
C1220      C2039   1.474       .  S
C1222      C1588   1.492       .  S
Fe1223     O1239   2.111       .  S
Fe1223     O1229   2.154       .  S
Fe1223     O1236   2.149       .  S
Fe1223     O1228   2.045       .  S
Fe1223     O1234   1.957       .  S
Fe1224     O1227   2.050       .  S
Fe1224     O1231   2.032       .  S
Fe1224     O1235   2.039       .  S
Fe1224     O1240   2.034       .  S
Fe1224     O1234   1.954       .  S
Fe1225     O1243   2.062       .  S
Fe1225     O1230   2.048       .  S
Fe1225     O1237   2.038       .  S
Fe1225     O1226   2.034       .  S
Fe1225     O1234   1.955       .  S
O1226      C1233   1.259       .  A
O1227      C1241   1.267       .  A
O1228      C1233   1.262       .  A
O1229      C1232   1.295       .  A
O1230      C1242   1.262       .  A
O1231      C1244   1.259       .  A
C1232      O1237   1.271       .  A
C1232      C1532   1.506       .  S
C1233      C1518   1.464       .  S
O1235      C1238   1.268       .  A
O1236      C1238   1.289       .  A
C1238      C1619   1.520       .  S
O1239      C1244   1.274       .  A
O1240      C1242   1.265       .  A
C1241      O1243   1.267       .  A
C1241      C1504   1.479       .  S
C1242      C1913   1.458       .  S
C1244      C1591   1.488       .  S
Fe1245     O1261   2.147       .  S
Fe1245     O1251   2.147       .  S
Fe1245     O1258   2.132       .  S
Fe1245     O1250   2.089       .  S
Fe1245     O1256   1.933       .  S
Fe1246     O1249   2.062       .  S
Fe1246     O1253   2.051       .  S
Fe1246     O1257   2.066       .  S
Fe1246     O1262   2.038       .  S
Fe1246     O1256   1.944       .  S
Fe1247     O1265   2.069       .  S
Fe1247     O1252   2.047       .  S
Fe1247     O1259   2.048       .  S
Fe1247     O1248   2.064       .  S
Fe1247     O1256   1.948       .  S
O1248      C1255   1.272       .  A
O1249      C1263   1.273       .  A
O1250      C1255   1.274       .  A
O1251      C1254   1.292       .  A
O1252      C1264   1.259       .  A
O1253      C1266   1.266       .  A
C1254      O1259   1.266       .  A
C1254      C1577   1.509       .  S
C1255      C1462   1.480       .  S
O1257      C1260   1.267       .  A
O1258      C1260   1.282       .  A
C1260      C1756   1.522       .  S
O1261      C1266   1.286       .  A
O1262      C1264   1.259       .  A
C1263      O1265   1.277       .  A
C1263      C1476   1.476       .  S
C1264      C1885   1.468       .  S
C1266      C1490   1.507       .  S
Fe1267     O1283   2.153       .  S
Fe1267     O1273   2.134       .  S
Fe1267     O1280   2.124       .  S
Fe1267     O1272   2.110       .  S
Fe1267     O1278   1.936       .  S
Fe1268     O1271   2.064       .  S
Fe1268     O1275   2.041       .  S
Fe1268     O1279   2.064       .  S
Fe1268     O1284   2.038       .  S
Fe1268     O1278   1.941       .  S
Fe1269     O1287   2.066       .  S
Fe1269     O1274   2.044       .  S
Fe1269     O1281   2.039       .  S
Fe1269     O1270   2.048       .  S
Fe1269     O1278   1.953       .  S
O1270      C1277   1.270       .  A
O1271      C1285   1.273       .  A
O1272      C1277   1.281       .  A
O1273      C1276   1.286       .  A
O1274      C1286   1.261       .  A
O1275      C1288   1.266       .  A
C1276      O1281   1.262       .  A
C1276      C1535   1.491       .  S
C1277      C1448   1.497       .  S
O1279      C1282   1.266       .  A
O1280      C1282   1.280       .  A
C1282      C1672   1.517       .  S
O1283      C1288   1.288       .  A
O1284      C1286   1.260       .  A
C1285      O1287   1.274       .  A
C1285      C1434   1.484       .  S
C1286      C1787   1.465       .  S
C1288      C1493   1.509       .  S
Fe1289     O1305   2.115       .  S
Fe1289     O1295   2.083       .  S
Fe1289     O1302   2.127       .  S
Fe1289     O1294   2.124       .  S
Fe1289     O1300   1.934       .  S
Fe1290     O1293   2.031       .  S
Fe1290     O1297   2.080       .  S
Fe1290     O1301   2.043       .  S
Fe1290     O1300   1.935       .  S
Fe1291     O1309   2.059       .  S
Fe1291     O1303   2.057       .  S
Fe1291     O1292   2.046       .  S
Fe1291     O1300   1.953       .  S
O1292      C1299   1.264       .  A
O1293      C1307   1.255       .  A
O1294      C1299   1.285       .  A
O1295      C1298   1.274       .  A
O1296      C1308   1.273   1_455  A
O1297      C1310   1.272       .  A
C1298      O1303   1.274       .  A
C1298      C1560   1.485       .  S
C1299      C1409   1.486       .  S
O1301      C1304   1.266       .  A
O1302      C1304   1.281       .  A
C1304      C1420   1.499       .  S
O1305      C1310   1.280       .  A
O1306      C1308   1.277       .  A
C1307      O1309   1.261       .  A
C1307      C1647   1.456       .  S
C1308      C1546   1.473       .  S
C1310      C2025   1.521       .  S
Fe1311     O1327   2.118       .  S
Fe1311     O1317   2.073       .  S
Fe1311     O1324   2.129       .  S
Fe1311     O1316   2.138       .  S
Fe1311     O1322   1.936       .  S
Fe1312     O1315   2.046       .  S
Fe1312     O1319   2.067       .  S
Fe1312     O1323   2.036       .  S
Fe1312     O1322   1.944       .  S
Fe1313     O1331   2.029       .  S
Fe1313     O1325   2.033       .  S
Fe1313     O1314   2.034       .  S
Fe1313     O1322   1.944       .  S
O1314      C1321   1.261       .  A
O1315      C1329   1.261       .  A
O1316      C1321   1.288       .  A
O1317      C1320   1.275       .  A
O1318      C1330   1.271       .  A
O1319      C1332   1.266       .  A
C1320      O1325   1.266       .  A
C1320      C1507   1.467       .  S
C1321      C1395   1.502       .  S
O1323      C1326   1.266       .  A
O1324      C1326   1.282       .  A
C1326      C1423   1.494       .  S
O1327      C1332   1.281       .  A
O1328      C1330   1.274       .  A
C1329      O1331   1.259       .  A
C1329      C1602   1.460       .  S
C1330      C1521   1.477       .  S
C1332      C1899   1.515       .  S
Fe1333     O1349   2.118       .  S
Fe1333     O1339   2.075       .  S
Fe1333     O1346   2.142       .  S
Fe1333     O1338   2.123       .  S
Fe1333     O1344   1.937       .  S
Fe1334     O1337   2.027       .  S
Fe1334     O1341   2.072       .  S
Fe1334     O1345   2.040       .  S
Fe1334     O1344   1.937       .  S
Fe1335     O1353   2.064       .  S
Fe1335     O1347   2.060       .  S
Fe1335     O1336   2.050       .  S
Fe1335     O1344   1.942       .  S
O1336      C1343   1.268       .  A
O1337      C1351   1.254       .  A
O1338      C1343   1.289       .  A
O1339      C1342   1.271       .  A
O1340      C1352   1.274   1_455  A
O1341      C1354   1.268       .  A
C1342      O1347   1.272       .  A
C1342      C1479   1.477       .  S
C1343      C1406   1.489       .  S
O1345      C1348   1.268       .  A
O1346      C1348   1.286       .  A
C1348      C1378   1.503       .  S
O1349      C1354   1.276       .  A
O1350      C1352   1.277       .  A
C1351      O1353   1.265       .  A
C1351      C1745   1.456       .  S
C1352      C1465   1.484       .  S
C1354      C1868   1.517       .  S
Fe1355     O1371   2.119       .  S
Fe1355     O1361   2.077       .  S
Fe1355     O1368   2.131       .  S
Fe1355     O1360   2.136       .  S
Fe1355     O1366   1.936       .  S
Fe1356     O1359   2.028       .  S
Fe1356     O1363   2.085       .  S
Fe1356     O1367   2.048       .  S
Fe1356     O1366   1.939       .  S
Fe1357     O1375   2.049       .  S
Fe1357     O1369   2.052       .  S
Fe1357     O1358   2.044       .  S
Fe1357     O1366   1.950       .  S
O1358      C1365   1.266       .  A
O1359      C1373   1.255       .  A
O1360      C1365   1.291       .  A
O1361      C1364   1.273       .  A
O1362      C1374   1.274       .  A
O1363      C1376   1.274       .  A
C1364      O1369   1.269       .  A
C1364      C1437   1.483       .  S
C1365      C1392   1.504       .  S
O1367      C1370   1.266       .  A
O1368      C1370   1.281       .  A
C1370      C1381   1.499       .  S
O1371      C1376   1.282       .  A
O1372      C1374   1.281       .  A
C1373      O1375   1.261       .  A
C1373      C1689   1.463       .  S
C1374      C1451   1.495       .  S
C1376      C1770   1.520       .  S
C1377      C1382   1.408       .  A
C1377      H1384   1.085       .  S
C1378      C1379   1.413       .  A
C1379      C1380   1.408       .  A
C1379      N1386   1.428       .  S
C1380      H1385   1.085       .  S
C1381      C1382   1.412       .  A
C1382      N1383   1.429       .  S
N1383      O1387   1.262       .  A
N1383      O1388   1.262       .  A
N1386      O1390   1.262       .  A
N1386      O1389   1.262       .  A
C1391      C1392   1.420       .  A
C1391      C1396   1.408       .  A
C1391      H1398   1.084       .  S
C1392      C1393   1.405       .  A
C1393      C1394   1.410       .  A
C1394      C1395   1.420       .  A
C1394      H1399   1.085       .  S
C1395      C1396   1.404       .  A
C1396      N1397   1.428       .  S
N1397      O1401   1.262       .  A
N1397      O1402   1.262       .  A
N1400      O1404   1.262       .  A
N1400      O1403   1.262       .  A
C1405      C1406   1.410   1_565  A
C1405      C1410   1.407       .  A
C1405      H1412   1.087       .  S
C1406      C1407   1.408       .  A
C1407      C1408   1.408   1_545  A
C1407      N1414   1.428       .  S
C1408      C1409   1.410       .  A
C1408      H1413   1.086       .  S
C1409      C1410   1.407       .  A
C1410      N1411   1.428       .  S
N1411      O1416   1.262       .  A
N1414      O1418   1.262       .  A
N1414      O1417   1.262       .  A
C1419      C1424   1.407       .  A
C1419      H1426   1.085       .  S
C1420      C1421   1.412       .  A
C1421      C1422   1.407       .  A
C1421      N1428   1.428       .  S
C1422      H1427   1.085       .  S
C1423      C1424   1.410       .  A
C1424      N1425   1.428       .  S
N1425      O1429   1.262       .  A
N1425      O1430   1.262       .  A
N1428      O1432   1.262       .  A
N1428      O1431   1.262       .  A
C1433      C1434   1.409       .  A
C1433      C1438   1.395       .  A
C1433      H1440   1.084       .  S
C1434      C1435   1.410       .  A
C1435      C1436   1.399       .  A
C1435      N1442   1.429       .  S
C1436      C1437   1.409       .  A
C1436      H1441   1.084       .  S
C1437      C1438   1.411       .  A
C1438      N1439   1.430       .  S
N1439      O1443   1.262       .  A
N1439      O1444   1.262       .  A
N1442      O1446   1.262       .  A
N1442      O1445   1.262       .  A
C1447      C1448   1.407       .  A
C1447      C1452   1.405       .  A
C1447      H1454   1.084       .  S
C1448      C1449   1.418       .  A
C1449      C1450   1.399       .  A
C1449      N1456   1.429       .  S
C1450      C1451   1.405       .  A
C1450      H1455   1.084       .  S
C1451      C1452   1.417       .  A
C1452      N1453   1.429       .  S
N1453      O1457   1.262       .  A
N1453      O1458   1.262       .  A
N1456      O1460   1.262       .  A
N1456      O1459   1.262       .  A
C1461      C1462   1.406       .  A
C1461      C1466   1.403       .  A
C1461      H1468   1.086       .  S
C1462      C1463   1.408       .  A
C1463      C1464   1.400   1_565  A
C1463      N1470   1.429       .  S
C1464      C1465   1.407       .  A
C1464      H1469   1.086       .  S
C1465      C1466   1.412   1_545  A
C1466      N1467   1.429       .  S
N1467      O1471   1.262       .  A
N1467      O1472   1.262   1_565  A
N1470      O1474   1.262   1_565  A
N1470      O1473   1.262       .  A
C1475      C1476   1.407       .  A
C1475      C1480   1.394       .  A
C1475      H1482   1.083       .  S
C1476      C1477   1.408   1_565  A
C1477      C1478   1.402       .  A
C1477      N1484   1.431       .  S
C1478      C1479   1.409       .  A
C1478      H1483   1.081       .  S
C1479      C1480   1.407   1_545  A
C1480      N1481   1.430       .  S
N1481      O1485   1.262       .  A
N1481      O1486   1.262   1_565  A
N1484      O1488   1.262       .  A
N1484      O1487   1.262   1_545  A
C1489      C1490   1.403       .  A
C1489      C1494   1.410       .  A
C1489      H1496   1.085       .  S
C1490      C1491   1.422       .  A
C1491      C1492   1.414       .  A
C1491      N1498   1.429       .  S
C1492      C1493   1.405       .  A
C1492      H1497   1.084       .  S
C1493      C1494   1.423       .  A
C1494      N1495   1.430       .  S
N1495      O1499   1.262       .  A
N1495      O1500   1.262       .  A
N1498      O1502   1.262       .  A
N1498      O1501   1.262       .  A
C1503      C1504   1.407       .  A
C1503      C1508   1.398       .  A
C1503      H1510   1.083       .  S
C1504      C1505   1.418       .  A
C1505      C1506   1.390       .  A
C1505      N1512   1.430       .  S
C1506      C1507   1.397       .  A
C1506      H1511   1.084       .  S
C1507      C1508   1.411       .  A
C1508      N1509   1.430       .  S
N1509      O1513   1.262       .  A
N1509      O1514   1.262       .  A
N1512      O1516   1.262       .  A
N1512      O1515   1.262       .  A
C1517      C1518   1.401       .  A
C1517      C1522   1.395       .  A
C1517      H1524   1.085       .  S
C1518      C1519   1.407       .  A
C1519      C1520   1.390       .  A
C1519      N1526   1.430       .  S
C1520      C1521   1.408       .  A
C1520      H1525   1.085       .  S
C1521      C1522   1.414       .  A
C1522      N1523   1.429       .  S
N1523      O1527   1.262       .  A
N1523      O1528   1.262       .  A
N1526      O1530   1.262       .  A
N1526      O1529   1.262       .  A
C1531      C1532   1.417       .  A
C1531      C1536   1.410       .  A
C1531      H1538   1.084       .  S
C1532      C1533   1.412       .  A
C1533      C1534   1.409       .  A
C1533      N1540   1.428       .  S
C1534      C1535   1.411       .  A
C1534      H1539   1.085       .  S
C1535      C1536   1.407       .  A
C1536      N1537   1.429       .  S
N1537      O1541   1.262       .  A
N1537      O1542   1.262       .  A
N1540      O1544   1.262       .  A
N1540      O1543   1.262       .  A
C1545      C1546   1.401       .  A
C1545      C1550   1.395       .  A
C1545      H1552   1.085       .  S
C1546      C1547   1.412   1_565  A
C1547      C1548   1.398       .  A
C1547      N1554   1.430       .  S
C1548      C1549   1.405       .  A
C1548      H1553   1.085       .  S
C1549      C1550   1.413   1_545  A
C1550      N1551   1.428       .  S
N1551      O1555   1.262       .  A
N1551      O1556   1.262       .  A
N1554      O1558   1.262       .  A
N1554      O1557   1.262       .  A
C1559      C1560   1.403   1_545  A
C1559      C1564   1.398       .  A
C1559      H1566   1.085       .  S
C1560      C1561   1.417       .  A
C1561      C1562   1.397       .  A
C1561      N1568   1.429       .  S
C1562      C1563   1.402   1_565  A
C1562      H1567   1.085       .  S
C1563      C1564   1.417       .  A
C1564      N1565   1.429       .  S
N1565      O1569   1.261       .  A
N1565      O1570   1.262       .  A
N1568      O1572   1.262       .  A
N1568      O1571   1.262       .  A
C1573      C1574   1.421   1_565  A
C1573      C1578   1.412       .  A
C1573      H1580   1.084       .  S
C1574      C1575   1.407       .  A
C1575      C1576   1.412       .  A
C1575      N1582   1.428       .  S
C1576      C1577   1.420   1_545  A
C1576      H1581   1.085       .  S
C1577      C1578   1.406       .  A
C1578      N1579   1.428       .  S
N1579      O1583   1.262       .  A
N1579      O1584   1.262       .  A
N1582      O1586   1.262       .  A
N1582      O1585   1.262       .  A
C1587      C1588   1.402       .  A
C1587      C1592   1.405       .  A
C1587      H1594   1.085       .  S
C1588      C1589   1.418       .  A
C1589      C1590   1.408       .  A
C1589      N1596   1.429       .  S
C1590      C1591   1.401       .  A
C1590      H1595   1.085       .  S
C1591      C1592   1.417       .  A
C1592      N1593   1.430       .  S
N1593      O1597   1.262       .  A
N1593      O1598   1.262       .  A
N1596      O1600   1.262       .  A
N1596      O1599   1.262       .  A
C1601      C1606   1.388       .  A
C1601      H1608   1.085       .  S
C1602      C1603   1.404       .  A
C1603      C1604   1.392   1_655  A
C1603      N1610   1.434       .  S
C1604      H1609   1.085       .  S
C1605      C1606   1.404       .  A
C1606      N1607   1.430       .  S
N1607      O1611   1.262       .  A
N1607      O1612   1.262       .  A
N1610      O1614   1.262       .  A
N1610      O1613   1.262       .  A
C1615      C1616   1.418       .  A
C1615      C1620   1.418       .  A
C1615      H1622   1.084       .  S
C1616      C1617   1.414       .  A
C1617      C1618   1.408       .  A
C1617      N1624   1.429       .  S
C1618      C1619   1.417       .  A
C1618      H1623   1.084       .  S
C1619      C1620   1.415       .  A
C1620      N1621   1.428       .  S
N1621      O1625   1.262       .  A
N1621      O1626   1.262       .  A
N1624      O1628   1.262       .  A
N1624      O1627   1.262       .  A
C1629      C1634   1.407       .  A
C1629      H1636   1.084       .  S
C1630      C1631   1.412       .  A
C1631      C1632   1.409       .  A
C1631      N1638   1.428       .  S
C1632      H1637   1.085       .  S
C1633      C1634   1.410       .  A
C1634      N1635   1.429       .  S
N1635      O1639   1.262       .  A
N1635      O1640   1.262       .  A
N1638      O1642   1.262       .  A
N1638      O1641   1.262       .  A
C1643      C1644   1.404   1_565  A
C1643      C1648   1.389   1_655  A
C1643      H1650   1.079   1_655  S
C1644      C1645   1.397       .  A
C1646      C1647   1.409   1_545  A
C1646      H1651   1.078       .  S
C1648      N1649   1.428       .  S
N1649      O1653   1.261       .  A
N1652      O1656   1.260       .  A
C1657      C1658   1.406       .  A
C1657      C1662   1.416       .  A
C1657      H1664   1.084       .  S
C1658      C1659   1.425       .  A
C1659      C1660   1.413       .  A
C1659      N1666   1.428       .  S
C1660      C1661   1.403       .  A
C1660      H1665   1.084       .  S
C1661      C1662   1.427       .  A
C1662      N1663   1.431       .  S
N1663      O1667   1.262       .  A
N1663      O1668   1.261       .  A
N1666      O1670   1.260       .  A
N1666      O1669   1.262       .  A
C1671      C1672   1.418       .  A
C1671      C1676   1.414   1_556  A
C1671      H1678   1.084       .  S
C1672      C1673   1.412       .  A
C1673      C1674   1.411       .  A
C1673      N1680   1.429       .  S
C1674      C1675   1.417   1_556  A
C1674      H1679   1.084       .  S
C1675      C1676   1.413       .  A
C1676      N1677   1.429       .  S
N1677      O1681   1.262       .  A
N1677      O1682   1.262       .  A
N1680      O1684   1.262       .  A
N1680      O1683   1.262       .  A
C1685      C1686   1.400       .  A
C1685      H1692   1.085       .  S
C1686      C1687   1.401   1_554  A
C1687      N1694   1.432       .  S
C1688      C1689   1.407       .  A
C1688      H1693   1.084       .  S
C1689      C1690   1.407   1_556  A
C1690      N1691   1.428       .  S
N1691      O1696   1.262       .  A
N1694      O1697   1.262       .  A
C1699      C1700   1.410       .  A
C1699      C1704   1.415       .  A
C1699      H1706   1.085       .  S
C1700      C1701   1.412       .  A
C1701      C1702   1.406       .  A
C1701      N1708   1.429       .  S
C1702      C1703   1.407       .  A
C1702      H1707   1.085       .  S
C1703      C1704   1.412       .  A
C1704      N1705   1.428       .  S
N1705      O1709   1.262       .  A
N1705      O1710   1.262       .  A
N1708      O1712   1.262       .  A
C1713      C1714   1.408   1_545  A
C1713      C1718   1.410       .  A
C1713      H1720   1.085   1_545  S
C1714      C1715   1.408       .  A
C1715      C1716   1.409   1_565  A
C1716      C1717   1.410       .  A
C1716      H1721   1.085       .  S
C1717      C1718   1.411       .  A
C1718      N1719   1.427       .  S
N1719      O1723   1.262       .  A
N1719      O1724   1.262       .  A
N1722      O1726   1.262       .  A
N1722      O1725   1.262       .  A
C1727      C1728   1.402       .  A
C1727      C1732   1.402       .  A
C1727      H1734   1.085       .  S
C1729      C1730   1.410       .  A
C1729      N1736   1.429       .  S
C1730      C1731   1.402       .  A
C1730      H1735   1.085       .  S
C1732      N1733   1.429       .  S
N1733      O1737   1.262       .  A
N1733      O1738   1.261       .  A
N1736      O1740   1.262       .  A
N1736      O1739   1.262       .  A
C1741      C1742   1.406       .  A
C1741      C1746   1.393   1_654  A
C1741      H1748   1.089       .  S
C1743      C1744   1.390   1_554  A
C1743      N1750   1.430       .  S
C1744      C1745   1.404       .  A
C1744      H1749   1.089       .  S
C1746      N1747   1.434       .  S
N1747      O1751   1.263       .  A
N1747      O1752   1.262       .  A
N1750      O1754   1.262   1_554  A
N1750      O1753   1.262       .  A
C1755      C1756   1.407       .  A
C1755      C1760   1.416       .  A
C1755      H1762   1.083       .  S
C1756      C1757   1.428       .  A
C1757      C1758   1.412   1_556  A
C1757      N1764   1.430       .  S
C1758      C1759   1.403       .  A
C1758      H1763   1.084       .  S
C1759      C1760   1.426   1_554  A
C1760      N1761   1.430       .  S
N1761      O1765   1.262   1_556  A
N1761      O1766   1.262       .  A
N1764      O1768   1.262   1_556  A
N1764      O1767   1.262       .  A
C1769      C1770   1.416       .  A
C1769      C1774   1.415   1_556  A
C1769      H1776   1.084       .  S
C1770      C1771   1.415       .  A
C1771      C1772   1.414       .  A
C1771      N1778   1.428       .  S
C1772      C1773   1.415   1_556  A
C1772      H1777   1.084       .  S
C1773      C1774   1.415       .  A
C1774      N1775   1.428       .  S
N1775      O1779   1.262       .  A
N1775      O1780   1.261       .  A
N1778      O1782   1.262       .  A
N1778      O1781   1.262       .  A
C1783      C1784   1.407       .  A
C1783      C1788   1.388       .  A
C1783      H1790   1.084       .  S
C1784      C1785   1.407   1_554  A
C1785      C1786   1.393       .  A
C1785      N1792   1.433       .  S
C1786      C1787   1.409       .  A
C1786      H1791   1.084       .  S
C1787      C1788   1.405   1_556  A
C1788      N1789   1.430       .  S
N1789      O1793   1.262       .  A
N1789      O1794   1.262       .  A
N1792      O1796   1.262       .  A
N1792      O1795   1.262       .  A
C1797      C1798   1.407       .  A
C1797      C1802   1.401       .  A
C1797      H1804   1.083       .  S
C1798      C1799   1.416       .  A
C1799      C1800   1.394       .  A
C1799      N1806   1.430       .  S
C1800      C1801   1.401       .  A
C1800      H1805   1.083       .  S
C1801      C1802   1.411       .  A
C1802      N1803   1.430       .  S
N1803      O1807   1.262       .  A
N1803      O1808   1.262       .  A
N1806      O1810   1.262       .  A
N1806      O1809   1.262       .  A
C1811      C1812   1.398       .  A
C1811      C1816   1.399       .  A
C1811      H1818   1.085       .  S
C1812      C1813   1.408       .  A
C1813      C1814   1.398       .  A
C1813      N1820   1.429       .  S
C1814      C1815   1.407       .  A
C1814      H1819   1.084       .  S
C1815      C1816   1.421       .  A
C1816      N1817   1.430       .  S
N1817      O1821   1.262       .  A
N1817      O1822   1.262       .  A
N1820      O1824   1.262       .  A
N1820      O1823   1.262       .  A
C1825      C1826   1.407       .  A
C1825      C1830   1.394       .  A
C1825      H1832   1.085       .  S
C1826      C1827   1.409   1_565  A
C1827      C1828   1.391       .  A
C1827      N1834   1.429       .  S
C1828      C1829   1.407       .  A
C1828      H1833   1.085       .  S
C1829      C1830   1.411   1_545  A
C1830      N1831   1.430       .  S
N1831      O1835   1.262       .  A
N1831      O1836   1.262       .  A
N1834      O1838   1.262       .  A
N1834      O1837   1.262       .  A
C1839      C1840   1.404       .  A
C1839      C1844   1.389       .  A
C1839      H1846   1.085       .  S
C1840      C1841   1.409   1_565  A
C1841      C1842   1.395       .  A
C1841      N1848   1.429       .  S
C1842      C1843   1.406       .  A
C1842      H1847   1.085       .  S
C1843      C1844   1.409   1_545  A
C1844      N1845   1.429       .  S
N1845      O1849   1.262       .  A
N1845      O1850   1.262       .  A
N1848      O1852   1.262       .  A
N1848      O1851   1.262       .  A
C1853      C1854   1.402       .  A
C1853      C1858   1.405       .  A
C1853      H1860   1.084       .  S
C1854      C1855   1.421       .  A
C1855      C1856   1.408       .  A
C1855      N1862   1.430       .  S
C1856      C1857   1.403       .  A
C1856      H1861   1.085       .  S
C1857      C1858   1.418       .  A
C1858      N1859   1.428       .  S
N1859      O1863   1.261       .  A
N1859      O1864   1.262       .  A
N1862      O1866   1.262       .  A
N1862      O1865   1.262       .  A
C1867      C1868   1.414       .  A
C1867      C1872   1.414   1_556  A
C1867      H1874   1.084       .  S
C1868      C1869   1.414       .  A
C1869      C1870   1.414       .  A
C1869      N1876   1.428       .  S
C1870      C1871   1.417   1_556  A
C1870      H1875   1.084       .  S
C1871      C1872   1.416       .  A
C1872      N1873   1.428       .  S
N1873      O1877   1.262       .  A
N1873      O1878   1.262       .  A
N1876      O1880   1.262       .  A
N1876      O1879   1.262       .  A
C1881      C1882   1.403   1_556  A
C1881      C1886   1.391       .  A
C1881      H1888   1.084       .  S
C1882      C1883   1.411   1_545  A
C1883      C1884   1.395   1_554  A
C1883      N1890   1.435       .  S
C1884      C1885   1.405       .  A
C1884      H1889   1.083       .  S
C1885      C1886   1.410   1_565  A
C1886      N1887   1.430       .  S
N1887      O1891   1.262       .  A
N1887      O1892   1.262       .  A
N1890      O1894   1.262       .  A
N1890      O1893   1.263       .  A
C1895      C1896   1.407       .  A
C1895      C1900   1.417       .  A
C1895      H1902   1.084       .  S
C1896      C1897   1.429       .  A
C1897      C1898   1.410       .  A
C1897      N1904   1.431       .  S
C1898      C1899   1.401       .  A
C1898      H1903   1.084       .  S
C1899      C1900   1.425       .  A
C1900      N1901   1.429       .  S
N1901      O1905   1.261       .  A
N1901      O1906   1.262       .  A
N1904      O1908   1.262       .  A
N1904      O1907   1.262       .  A
C1909      C1910   1.408       .  A
C1909      C1914   1.395       .  A
C1909      H1916   1.082       .  S
C1910      C1911   1.418       .  A
C1911      C1912   1.391       .  A
C1911      N1918   1.430       .  S
C1912      C1913   1.399       .  A
C1912      H1917   1.085       .  S
C1913      C1914   1.402       .  A
C1914      N1915   1.430       .  S
N1915      O1919   1.261       .  A
N1915      O1920   1.262       .  A
N1918      O1922   1.261       .  A
N1918      O1921   1.262       .  A
C1923      C1924   1.404       .  A
C1923      C1928   1.397       .  A
C1923      H1930   1.084       .  S
C1924      C1925   1.418       .  A
C1925      C1926   1.402       .  A
C1925      N1932   1.429       .  S
C1926      C1927   1.403       .  A
C1926      H1931   1.084       .  S
C1927      C1928   1.416       .  A
C1928      N1929   1.430       .  S
N1929      O1933   1.262       .  A
N1929      O1934   1.262       .  A
N1932      O1936   1.262       .  A
N1932      O1935   1.262       .  A
C1937      C1938   1.406       .  A
C1937      C1942   1.399       .  A
C1937      H1944   1.085       .  S
C1938      C1939   1.412       .  A
C1939      C1940   1.395       .  A
C1939      N1946   1.430       .  S
C1940      C1941   1.409       .  A
C1940      H1945   1.085       .  S
C1941      C1942   1.412       .  A
C1942      N1943   1.428       .  S
N1943      O1947   1.262       .  A
N1943      O1948   1.261       .  A
N1946      O1950   1.262       .  A
N1946      O1949   1.262       .  A
C1951      C1952   1.410       .  A
C1951      C1956   1.409       .  A
C1951      H1958   1.085       .  S
C1952      C1953   1.409       .  A
C1953      C1954   1.412       .  A
C1953      N1960   1.428       .  S
C1954      C1955   1.412       .  A
C1954      H1959   1.086       .  S
C1955      C1956   1.408       .  A
C1956      N1957   1.428       .  S
N1957      O1961   1.262       .  A
N1957      O1962   1.262       .  A
N1960      O1964   1.262       .  A
N1960      O1963   1.262       .  A
C1965      C1966   1.406   1_545  A
C1965      C1970   1.404       .  A
C1965      H1972   1.084       .  S
C1966      C1967   1.418       .  A
C1967      C1968   1.399       .  A
C1967      N1974   1.429       .  S
C1968      C1969   1.405   1_565  A
C1968      H1973   1.084       .  S
C1969      C1970   1.418       .  A
C1970      N1971   1.429       .  S
N1971      O1975   1.262       .  A
N1971      O1976   1.262       .  A
N1974      O1978   1.262       .  A
N1974      O1977   1.262       .  A
C1979      C1980   1.403   1_565  A
C1979      C1984   1.403       .  A
C1979      H1986   1.084       .  S
C1980      C1981   1.412       .  A
C1981      C1982   1.394       .  A
C1981      N1988   1.429       .  S
C1982      C1983   1.403   1_545  A
C1982      H1987   1.085       .  S
C1983      C1984   1.418       .  A
C1984      N1985   1.430       .  S
N1985      O1989   1.262       .  A
N1985      O1990   1.262       .  A
N1988      O1992   1.261       .  A
N1988      O1991   1.262       .  A
C1993      C1994   1.419   1_565  A
C1993      C1998   1.410       .  A
C1993      H2000   1.085       .  S
C1994      C1995   1.404       .  A
C1995      C1996   1.408       .  A
C1995      N2002   1.428       .  S
C1996      C1997   1.419   1_545  A
C1996      H2001   1.085       .  S
C1997      C1998   1.405       .  A
C1998      N1999   1.428       .  S
N1999      O2003   1.262       .  A
N1999      O2004   1.262       .  A
N2002      O2006   1.262       .  A
N2002      O2005   1.262       .  A
C2007      C2008   1.412       .  A
C2007      C2012   1.405       .  A
C2007      H2014   1.085       .  S
C2008      C2009   1.413       .  A
C2009      C2010   1.409       .  A
C2009      N2016   1.428       .  S
C2010      C2011   1.410       .  A
C2010      H2015   1.085       .  S
C2011      C2012   1.411       .  A
C2012      N2013   1.429       .  S
N2013      O2017   1.262       .  A
N2013      O2018   1.262       .  A
N2016      O2020   1.262       .  A
N2016      O2019   1.262       .  A
C2021      C2022   1.415       .  A
C2021      C2026   1.414       .  A
C2021      H2028   1.084       .  S
C2022      C2023   1.413       .  A
C2023      C2024   1.416       .  A
C2023      N2030   1.427       .  S
C2024      C2025   1.417       .  A
C2024      H2029   1.084       .  S
C2025      C2026   1.417       .  A
C2026      N2027   1.430       .  S
N2027      O2031   1.262       .  A
N2027      O2032   1.262       .  A
N2030      O2034   1.261       .  A
N2030      O2033   1.262       .  A
C2035      C2036   1.405   1_545  A
C2035      C2040   1.393       .  A
C2035      H2042   1.084       .  S
C2036      C2037   1.404       .  A
C2037      C2038   1.391       .  A
C2037      N2044   1.428       .  S
C2038      C2039   1.410   1_565  A
C2038      H2043   1.084       .  S
C2039      C2040   1.410       .  A
C2040      N2041   1.433       .  S
N2041      O2045   1.262       .  A
N2041      O2046   1.263       .  A
N2044      O2048   1.261       .  A
N2044      O2047   1.262       .  A
