geometry optimzed in LAMMPS
_audit_creation_date              2020-12-01 
_audit_creation_method            'lammps2cif' 
_symmetry_space_group_name_H-M    'P1' 
_symmetry_Int_Tables_number       1 
_symmetry_cell_setting            triclinic 
loop_ 
_symmetry_equiv_pos_as_xyz 
  x,y,z 
_cell_length_a                    44.6284164 
_cell_length_b                    33.677018903138645 
_cell_length_c                    44.66859198526214 
_cell_angle_alpha                 90.50804886380013 
_cell_angle_beta                  110.11359121847154 
_cell_angle_gamma                 89.64292882856225 
loop_ 
_atom_site_label 
_atom_site_type_symbol 
_atom_site_fract_x 
_atom_site_fract_y 
_atom_site_fract_z 
_atom_site_charge 
Fe1        Fe  0.40059490  0.90934267  0.45379578     1.65800
Fe2        Fe  0.34885971  0.90467177  0.49267064     1.73200
Fe3        Fe  0.38523567  0.99125945  0.49019811     1.54400
O4          O  0.43295871  0.98789458  0.49534668    -0.81900
O5          O  0.31365435  0.94346004  0.47145365    -0.80200
O6          O  0.44586284  0.92575631  0.48605181    -0.84400
O7          O  0.40255490  0.96001025  0.42913444    -0.79200
O8          O  0.39545635  0.97315544  0.03691917    -0.81000
O9          O  0.33199034  0.87206559  0.45025243    -0.83700
C10         C  0.38985364  0.99427645  0.42502775     0.97000
C11         C  0.45358207  0.96195577  0.49485051     1.04500
O12         O  0.37888996  0.93519866  0.47954950    -1.12700
O13         O  0.38547336  0.86159292  0.01108448    -0.75200
O14         O  0.39979406  0.85267428  0.47378291    -0.78600
O15         O  0.37516785  0.00755447  0.44294240    -0.79300
C16         C  0.39173172  0.84002422  0.49683855     0.95900
O17         O  0.35620999  0.89757412  0.41941626    -0.77300
O18         O  0.35953886  0.92679899  0.03415835    -0.82500
C19         C  0.31334576  0.97951745  0.47889840     0.98500
C20         C  0.37949960  0.95257165  0.04989801     1.04500
O21         O  0.33821022  0.00106687  0.48712304    -0.78100
C22         C  0.33177681  0.88155533  0.42267478     1.02800
Fe23       Fe  0.36679181  0.60126254  0.04318368     1.65800
Fe24       Fe  0.40730509  0.60556461  0.99187089     1.73200
Fe25       Fe  0.37388902  0.51996603  0.99998380     1.54400
O26         O  0.37528105  0.50032155  0.04489642    -0.81900
O27         O  0.37553509  0.59279741  0.44683764    -0.80200
O28         O  0.37908816  0.55480218  0.07431689    -0.84400
O29         O  0.32034197  0.57437703  0.02192521    -0.79200
O30         O  0.42226360  0.50829995  0.01212497    -0.81000
O31         O  0.39003069  0.65719546  0.49426548    -0.83700
C32         C  0.30918432  0.54512263  0.00224033     0.97000
C33         C  0.37680193  0.51758562  0.07082121     1.04500
O34         O  0.38176433  0.57587173  0.01160936    -1.12700
O35         O  0.44169921  0.61356059  0.03561235    -0.75200
O36         O  0.41358515  0.62478494  0.06766300    -0.78600
O37         O  0.32397710  0.52926160  0.48678977    -0.79300
C38         C  0.44042644  0.62325183  0.06264420     0.95900
O39         O  0.35239672  0.65438822  0.01782360    -0.77300
O40         O  0.43103210  0.55309300  0.48627877    -0.82500
C41         C  0.36982643  0.55770119  0.43566831     0.98500
C42         C  0.43907674  0.52523567  0.99820911     1.04500
O43         O  0.36990774  0.52801768  0.45332701    -0.78100
C44         C  0.36832505  0.67469842  0.00466896     1.02800
Fe45       Fe  0.13548072  0.91009969  0.30014975     1.65800
Fe46       Fe  0.17497663  0.89862937  0.24796448     1.73200
Fe47       Fe  0.14302861  0.98688304  0.25428180     1.54400
O48         O  0.09500412  0.97998742  0.24231205    -0.81900
O49         O  0.20035842  0.94425777  0.24048868    -0.80200
O50         O  0.09037206  0.93951978  0.27996815    -0.84400
O51         O  0.15048916  0.95777277  0.33041334    -0.79200
O52         O  0.13893998  0.97279426  0.20719732    -0.81000
O53         O  0.20892104  0.89053771  0.29191909    -0.83700
C54         C  0.14766364  0.99471860  0.32539051     0.97000
C55         C  0.07930948  0.96702232  0.25898643     1.04500
O56         O  0.15032182  0.93157169  0.26731009    -1.12700
O57         O  0.15483569  0.84655033  0.25235152    -0.75200
O58         O  0.11846085  0.85710292  0.27511524    -0.78600
O59         O  0.14465292  0.00963660  0.29851807    -0.79300
C60         C  0.13324437  0.83431012  0.26197318     0.95900
O61         O  0.18090528  0.88397771  0.32440587    -0.77300
O62         O  0.14285775  0.90702253  0.20264533    -0.82500
C63         C  0.20813084  0.97771479  0.25339348     0.98500
C64         C  0.13713141  0.94142989  0.19037321     1.04500
O65         O  0.19124806  0.99686938  0.26631181    -0.78100
C66         C  0.20755959  0.88342637  0.31934080     1.02800
Fe67       Fe  0.13214285  0.59642338  0.19625682     1.65800
Fe68       Fe  0.08346318  0.59691193  0.23938176     1.73200
Fe69       Fe  0.12406703  0.51411719  0.23615941     1.54400
O70         O  0.13003048  0.49658959  0.19384652    -0.81900
O71         O  0.11127155  0.58877943  0.28610841    -0.82600
O72         O  0.12155013  0.55066435  0.16390242    -0.84400
O73         O  0.17770635  0.56910278  0.21910429    -0.79200
O74         O  0.07637622  0.49854695  0.21769771    -0.81000
O75         O  0.10142379  0.65196570  0.23940711    -0.83700
C76         C  0.18889975  0.54133242  0.23968716     0.97000
C77         C  0.12807021  0.51410826  0.16821268     1.04500
O78         O  0.11406531  0.56944694  0.22426164    -1.12700
O79         O  0.05374871  0.60440739  0.19369230    -0.75200
O80         O  0.08714650  0.62203933  0.16883733    -0.78600
O81         O  0.17211189  0.52552555  0.25431227    -0.79300
C82         C  0.05874562  0.61838320  0.16965530     0.95900
O83         O  0.14447955  0.64697419  0.22553132    -0.77300
O84         O  0.05942270  0.54733943  0.24148399    -0.82500
C85         C  0.11766574  0.55420344  0.29771696     0.98500
C86         C  0.05591011  0.51380561  0.22821834     1.04500
O87         O  0.12056946  0.52435540  0.28104156    -0.78100
C88         C  0.12560921  0.66703568  0.23570818     1.02800
Fe89       Fe  0.36609141  0.40816353  0.29288365     1.65800
Fe90       Fe  0.41435956  0.39919476  0.25033461     1.73200
Fe91       Fe  0.37859004  0.48707674  0.25222641     1.54400
O92         O  0.33181925  0.48515819  0.24999032    -0.81900
O93         O  0.44960215  0.43899329  0.26877652    -0.80200
O94         O  0.31947432  0.42520897  0.26287286    -0.84400
O95         O  0.36640374  0.46023078  0.31695732    -0.79200
O96         O  0.36518801  0.47130837  0.20430233    -0.81000
O97         O  0.43318673  0.36817296  0.29278796    -0.83700
C98         C  0.37749969  0.49509852  0.31891353     0.97000
C99         C  0.31149634  0.46122711  0.25374919     1.04500
O100        O  0.38574125  0.43163495  0.26469820    -1.12700
O101        O  0.37972527  0.35853458  0.23150841    -0.75200
O102        O  0.36491818  0.35032852  0.27336271    -0.78600
O103        O  0.39041335  0.50764984  0.29932234    -0.79300
C104        C  0.37154898  0.33616523  0.24970347     0.95900
O105        O  0.41176580  0.39576120  0.32562513    -0.77300
O106        O  0.40126765  0.42514230  0.20589771    -0.82500
C107        C  0.44898186  0.47334024  0.25759204     0.98500
C108        C  0.38099595  0.45070676  0.19066912     1.04500
O109        O  0.42455773  0.49550263  0.25171767    -0.78100
C110        C  0.43512633  0.37805634  0.32079525     1.02800
Fe111      Fe  0.39757648  0.09753355  0.20272424     1.65800
Fe112      Fe  0.35568247  0.09925588  0.25276776     1.73200
Fe113      Fe  0.39105457  0.01533920  0.24363201     1.54400
O114        O  0.38974487  0.99738701  0.19817169    -0.81900
O115        O  0.38852926  0.09148232  0.29735308    -0.80200
O116        O  0.38524402  0.05257598  0.17019299    -0.84400
O117        O  0.44393659  0.07045311  0.22304674    -0.79200
O118        O  0.34352835  0.00203028  0.23079742    -0.81000
O119        O  0.37206916  0.15410980  0.24932312    -0.83700
C120        C  0.45485525  0.04116709  0.24238168     0.97000
C121        C  0.38765520  0.01539760  0.17264022     1.04500
O122        O  0.38233817  0.07099571  0.23318446    -1.12700
O123        O  0.32195330  0.10557011  0.20882388    -0.75200
O124        O  0.35099735  0.12095378  0.17863896    -0.78600
O125        O  0.43856684  0.02460188  0.25684810    -0.79300
C126        C  0.32386155  0.11604317  0.18226451     0.95900
O127        O  0.41158858  0.14914126  0.23024024    -0.77300
O128        O  0.33327010  0.05024868  0.25972766    -0.82500
C129        C  0.39515025  0.05670171  0.30862853     0.98500
C130        C  0.32667783  0.01740118  0.24549693     1.04500
O131        O  0.39435787  0.02628709  0.29098779    -0.78100
C132        C  0.39417713  0.16937059  0.24205308     1.02800
Fe133      Fe  0.12882236  0.09086667  0.04862096     1.65800
Fe134      Fe  0.17785236  0.09525773  0.00491330     1.73200
Fe135      Fe  0.13558372  0.01144511  0.00271062     1.54400
O136        O  0.13444235  0.98931414  0.04594833    -0.81900
O137        O  0.15053632  0.09154041  0.45503830    -0.80200
O138        O  0.13685712  0.04181240  0.07742388    -0.84400
O139        O  0.08251352  0.06732133  0.02470514    -0.79200
O140        O  0.18245041  0.99310897  0.01573409    -0.81000
O141        O  0.15615861  0.15440534  0.50181444    -0.83700
C142        C  0.07117578  0.03945072  0.00406062     0.97000
C143        C  0.13552732  0.00465326  0.07242385     1.04500
O144        O  0.14679314  0.06600269  0.01848735    -1.12700
O145        O  0.20716464  0.10200285  0.05105497    -0.75200
O146        O  0.17405726  0.11220684  0.07803928    -0.78600
O147        O  0.08920201  0.02656838  0.48989037    -0.79300
C148        C  0.20223864  0.11051054  0.07666151     0.95900
O149        O  0.11848575  0.14516177  0.02383611    -0.77300
O150        O  0.20391164  0.05334513  0.50129485    -0.82500
C151        C  0.14102702  0.05808097  0.44184520     0.98500
C152        C  0.20460139  0.01091135  0.00978982     1.04500
O153        O  0.13671237  0.02845043  0.45745122    -0.78100
C154        C  0.13587738  0.16507442  0.01193232     1.02800
Fe155      Fe  0.12898219  0.40840439  0.44541345     1.65800
Fe156      Fe  0.08946017  0.40439614  0.49737216     1.73200
Fe157      Fe  0.12095449  0.49052736  0.48698091     1.54400
O158        O  0.16920157  0.48367453  0.49962480    -0.81900
O159        O  0.06495491  0.45213979  0.50378675    -0.80200
O160        O  0.17469879  0.43706606  0.46561169    -0.84400
O161        O  0.11475030  0.45358397  0.41318073    -0.79200
O162        O  0.12682867  0.47646071  0.03455451    -0.81000
O163        O  0.05495260  0.39455541  0.45416105    -0.83700
C164        C  0.11819104  0.49073618  0.41634608     0.97000
C165        C  0.18576539  0.46635741  0.48521375     1.04500
O166        O  0.11398115  0.43418433  0.47663228    -1.12700
O167        O  0.10958701  0.34674898  0.99515090    -0.75200
O168        O  0.14525880  0.35705581  0.47242921    -0.78600
O169        O  0.12009125  0.50878221  0.44202882    -0.79300
C170        C  0.13057849  0.33638006  0.48666161     0.95900
O171        O  0.08290168  0.38264454  0.42208449    -0.77300
O172        O  0.12478797  0.41119749  0.04145389    -0.82500
C173        C  0.05613463  0.48401191  0.48896951     0.98500
C174        C  0.12976023  0.44629346  0.05252500     1.04500
O175        O  0.07231416  0.50105440  0.47439221    -0.78100
C176        C  0.05619420  0.38401677  0.42731988     1.02800
C177        C  0.12266279  0.26791771  0.46678736    -0.06000
C178        C  0.13671730  0.29364703  0.49267540     0.00000
C179        C  0.15316786  0.27474966  0.02373099    -0.08600
C180        C  0.15000434  0.23417338  0.02975758    -0.06000
C181        C  0.13153984  0.20821657  0.00575638    -0.00100
C182        C  0.11873408  0.22712882  0.47119425    -0.08500
C183        C  0.10417873  0.20011526  0.44253559     0.61900
H184        H  0.11384771  0.28033567  0.44303643     0.12500
H185        H  0.16264481  0.22210335  0.05314221     0.12600
C186        C  0.17344763  0.30184908  0.05014378     0.62100
F187        F  0.09226594  0.22135819  0.41449539    -0.23100
F188        F  0.07936417  0.17877892  0.44635239    -0.20400
F189        F  0.12703370  0.17401028  0.43959062    -0.20100
F190        F  0.15440234  0.33025503  0.05721893    -0.20100
F191        F  0.19597950  0.32053290  0.04035083    -0.20500
F192        F  0.18931007  0.28111783  0.07774348    -0.23100
C193        C  0.26456155  0.10880682  0.16083595    -0.06000
C194        C  0.29251339  0.12063437  0.15508954     0.00000
C195        C  0.28919156  0.13363377  0.12390410    -0.08600
C196        C  0.25866891  0.13261207  0.09997807    -0.06000
C197        C  0.23139485  0.11801452  0.10536742    -0.00100
C198        C  0.23436888  0.10644627  0.13668418    -0.08500
C199        C  0.20647899  0.08967067  0.14465359     0.61900
H200        H  0.26655177  0.09951072  0.18454867     0.12500
H201        H  0.25609062  0.14187346  0.07606709     0.12600
C202        C  0.31736129  0.14784423  0.11520460     0.62100
F203        F  0.21520666  0.07828437  0.17623807    -0.23100
F204        F  0.19466736  0.05651208  0.12600776    -0.20400
F205        F  0.18271991  0.11804827  0.13923232    -0.20100
F206        F  0.33840915  0.11674566  0.11749698    -0.20100
F207        F  0.33267523  0.17843813  0.13543082    -0.20500
F208        F  0.30801756  0.16198308  0.08431229    -0.23100
C209        C  0.02493734  0.36831779  0.36996321    -0.06000
C210        C  0.02487400  0.37523661  0.40098173     0.00000
C211        C  0.99459013  0.37562349  0.40551807    -0.08600
C212        C  0.46563555  0.37585508  0.37938466    -0.06000
C213        C  0.46574423  0.37009745  0.34828598    -0.00100
C214        C  0.99643921  0.36519614  0.34329822    -0.08500
C215        C  0.99905582  0.35213217  0.31156211     0.61900
H216        H  0.04774914  0.36566151  0.36658342     0.12500
H217        H  0.44300627  0.38162573  0.38252036     0.12600
C218        C  0.99118852  0.37314491  0.43823792     0.62100
F219        F  0.02998078  0.34163950  0.31445902    -0.23100
F220        F  0.48960403  0.37299348  0.29067542    -0.20400
F221        F  0.98006555  0.31918301  0.30012618    -0.20100
F222        F  0.99887890  0.40897481  0.45424409    -0.20100
F223        F  0.01082844  0.34348410  0.45587923    -0.20500
F224        F  0.45866216  0.36763319  0.43681129    -0.23100
C225        C  0.38060387  0.23386605  0.21641818    -0.06000
C226        C  0.39574256  0.21292124  0.24462182     0.00000
C227        C  0.40178862  0.23216911  0.27437382    -0.08600
C228        C  0.39209179  0.27193923  0.27492765    -0.06000
C229        C  0.37617641  0.29279203  0.24671120    -0.00100
C230        C  0.37047062  0.27349996  0.21683777    -0.08500
C231        C  0.35269244  0.29389615  0.18547262     0.61900
H232        H  0.37516641  0.21810343  0.19394234     0.12500
H233        H  0.39731696  0.28724437  0.29755564     0.12600
C234        C  0.41839046  0.21043617  0.30535989     0.62100
F235        F  0.34258935  0.26698879  0.16041868    -0.23100
F236        F  0.37243188  0.32103102  0.17852233    -0.20400
F237        F  0.32597157  0.31323860  0.18742259    -0.20100
F238        F  0.44640497  0.19351294  0.30448595    -0.20100
F239        F  0.39886419  0.18089239  0.30955012    -0.20500
F240        F  0.42592229  0.23573125  0.33148016    -0.23100
C241        C  0.22432872  0.48108646  0.25029247    -0.06000
C242        C  0.22111190  0.52249129  0.24446851     0.00000
C243        C  0.24745454  0.54282131  0.24121340    -0.08600
C244        C  0.27528730  0.52103808  0.24315597    -0.06000
C245        C  0.27881533  0.47949193  0.24910230    -0.00100
C246        C  0.25249289  0.45931603  0.25285280    -0.08500
C247        C  0.25368010  0.41506744  0.25931795     0.61900
H248        H  0.20407543  0.46540936  0.25237895     0.12500
H249        H  0.29497150  0.53723776  0.24039637     0.12600
C250        C  0.24699200  0.58762808  0.23706771     0.62100
F251        F  0.22505214  0.40109908  0.26062448    -0.23100
F252        F  0.27709545  0.40706398  0.28829872    -0.20400
F253        F  0.26016433  0.39461252  0.23523362    -0.20100
F254        F  0.23805760  0.60587783  0.26058606    -0.20100
F255        F  0.22578030  0.59797774  0.20746755    -0.20500
F256        F  0.27666081  0.60216652  0.23936604    -0.23100
C257        C  0.99905308  0.51473332  0.21220927    -0.06000
C258        C  0.02724401  0.49349792  0.22779053     0.00000
C259        C  0.02920438  0.46946544  0.25404979    -0.08600
C260        C  0.00373781  0.46974161  0.26533599    -0.06000
C261        C  0.47620644  0.48461741  0.24778740    -0.00100
C262        C  0.47389018  0.51324882  0.22379406    -0.08500
C263        C  0.44591431  0.54186027  0.21092871     0.61900
H264        H  0.99886792  0.53441223  0.19309552     0.12500
H265        H  0.00595914  0.45268858  0.28641215     0.12600
C266        C  0.05921000  0.44726343  0.27334932     0.62100
F267        F  0.41831788  0.52121579  0.19547052    -0.23100
F268        F  0.44225681  0.56393029  0.23571243    -0.20400
F269        F  0.45023036  0.56820824  0.18916090    -0.20100
F270        F  0.07902878  0.43986315  0.25602541    -0.20100
F271        F  0.05126316  0.41096989  0.28278601    -0.20500
F272        F  0.07551821  0.46932062  0.30021034    -0.23100
C273        C  0.14496667  0.52051280  0.34789163    -0.06000
C274        C  0.12064353  0.54653089  0.33115407     0.00000
C275        C  0.09734549  0.55844965  0.34461326    -0.08600
C276        C  0.09822476  0.54131784  0.37366860    -0.06000
C277        C  0.12129117  0.51284646  0.38903867    -0.00100
C278        C  0.14597681  0.50361275  0.37670244    -0.08500
C279        C  0.17425781  0.47748656  0.39434848     0.61900
H280        H  0.16283337  0.51252827  0.33748372     0.12500
H281        H  0.07992406  0.54836541  0.38372220     0.12600
C282        C  0.07058667  0.58700658  0.32761090     0.62100
F283        F  0.19585846  0.47386330  0.37842319    -0.23100
F284        F  0.16442365  0.43970499  0.39825390    -0.20400
F285        F  0.19001655  0.49456979  0.42361337    -0.20100
F286        F  0.05227463  0.57113886  0.29846597    -0.20100
F287        F  0.08320462  0.62288516  0.32301268    -0.20500
F288        F  0.05072716  0.59441595  0.34498323    -0.23100
C289        C  0.15589637  0.48672470  0.09982761    -0.06000
C290        C  0.13619934  0.45428743  0.08668213     0.00000
C291        C  0.11842209  0.43662413  0.10403087    -0.08600
C292        C  0.11745802  0.45603894  0.13173354    -0.06000
C293        C  0.13399170  0.49156276  0.14237212    -0.00100
C294        C  0.15559358  0.50540934  0.12778385    -0.08500
C295        C  0.17915446  0.53866364  0.14208755     0.61900
H296        H  0.17038170  0.49868352  0.08695836     0.12500
H297        H  0.10241690  0.44487706  0.14428291     0.12600
C298        C  0.09942037  0.39879049  0.09284695     0.62100
F299        F  0.20033290  0.54369166  0.12591194    -0.23100
F300        F  0.19676561  0.52930374  0.17318754    -0.20400
F301        F  0.16345910  0.57433880  0.14124515    -0.20100
F302        F  0.11948598  0.36882907  0.08975513    -0.20100
F303        F  0.07549615  0.40495507  0.06386128    -0.20500
F304        F  0.08537871  0.38611804  0.11430256    -0.23100
C305        C  0.10277580  0.73417915  0.22650987    -0.06000
C306        C  0.12936157  0.71005978  0.24229394     0.00000
C307        C  0.15534491  0.72632651  0.26710409    -0.08600
C308        C  0.15422688  0.76685791  0.27467235    -0.06000
C309        C  0.12786834  0.79114204  0.25849200    -0.00100
C310        C  0.10163262  0.77464634  0.23412647    -0.08500
C311        C  0.07290319  0.79985239  0.21616765     0.61900
H312        H  0.08264427  0.72078604  0.20814244     0.12500
H313        H  0.17450822  0.78039648  0.29277073     0.12600
C314        C  0.18362133  0.70080000  0.28572125     0.62100
F315        F  0.05026688  0.77827530  0.19265285    -0.23100
F316        F  0.08225202  0.83137525  0.20181923    -0.20400
F317        F  0.05887479  0.81435943  0.23726139    -0.20100
F318        F  0.19806640  0.68520421  0.26533221    -0.20100
F319        F  0.17338008  0.67004479  0.30010700    -0.20500
F320        F  0.20623022  0.72234188  0.30927087    -0.23100
C321        C  0.11604446  0.01419961  0.35841267    -0.06000
C322        C  0.14388782  0.01989173  0.35120722     0.00000
C323        C  0.16775192  0.04556729  0.37049401    -0.08600
C324        C  0.16473547  0.06078262  0.39895290    -0.06000
C325        C  0.13830322  0.05138376  0.40797580    -0.00100
C326        C  0.11256107  0.03017770  0.38618468    -0.08500
C327        C  0.08179931  0.02361840  0.39247453     0.61900
H328        H  0.09748101  0.99545349  0.34272688     0.12500
H329        H  0.18402342  0.07785839  0.41535558     0.12600
C330        C  0.19651586  0.05542681  0.36141824     0.62100
F331        F  0.05763896  0.01026045  0.36551246    -0.23100
F332        F  0.07184391  0.05896969  0.40209748    -0.20400
F333        F  0.08674861  0.99547818  0.41591079    -0.20100
F334        F  0.18648153  0.07297580  0.33170296    -0.20100
F335        F  0.21325227  0.02108760  0.36033334    -0.20500
F336        F  0.21687751  0.08146110  0.38298684    -0.23100
C337        C  0.15681814  0.93782379  0.14508071    -0.06000
C338        C  0.13142941  0.94668990  0.15599462     0.00000
C339        C  0.10489464  0.96830954  0.13608112    -0.08600
C340        C  0.10658438  0.98501910  0.10799631    -0.06000
C341        C  0.13319775  0.97924600  0.09847957    -0.00100
C342        C  0.15790126  0.95338251  0.11617768    -0.08500
C343        C  0.18567677  0.94370116  0.10514284     0.61900
H344        H  0.17684298  0.92089212  0.16041101     0.12500
H345        H  0.08711392  0.00370619  0.09365148     0.12600
C346        C  0.07438644  0.97456824  0.14331255     0.62100
F347        F  0.20765490  0.91884818  0.12621272    -0.23100
F348        F  0.20109190  0.97820199  0.10230954    -0.20400
F349        F  0.17445929  0.92481297  0.07579898    -0.20100
F350        F  0.06992133  0.01468821  0.14715047    -0.20100
F351        F  0.07437590  0.95494927  0.17037146    -0.20500
F352        F  0.04894843  0.96037507  0.11795691    -0.23100
C353        C  0.02479934  0.96513691  0.26266520    -0.06000
C354        C  0.04755277  0.98651464  0.25448730     0.00000
C355        C  0.04021894  0.02684124  0.24420631    -0.08600
C356        C  0.01043826  0.04339054  0.24236589    -0.06000
C357        C  0.48725586  0.02333571  0.24802751    -0.00100
C358        C  0.49323234  0.98134151  0.25197896    -0.08500
C359        C  0.46697649  0.95105985  0.24841739     0.61900
H360        H  0.03064661  0.93489221  0.27060464     0.12500
H361        H  0.00458230  0.07361961  0.23439257     0.12600
C362        C  0.06356858  0.05342573  0.23572565     0.62100
F363        F  0.47772361  0.91236048  0.24860654    -0.23100
F364        F  0.44270152  0.95651250  0.21967601    -0.20400
F365        F  0.45529997  0.95471256  0.27322885    -0.20100
F366        F  0.06838534  0.03908848  0.20863656    -0.20100
F367        F  0.09225370  0.05492844  0.26081087    -0.20500
F368        F  0.05245969  0.09204260  0.22951503    -0.23100
C369        C  0.29453951  0.00028910  0.27710274    -0.06000
C370        C  0.29816727  0.99885301  0.24707337     0.00000
C371        C  0.27180750  0.99222267  0.21921774    -0.08600
C372        C  0.24180095  0.98961954  0.22221929    -0.06000
C373        C  0.23796620  0.99260539  0.25212296    -0.00100
C374        C  0.26454139  0.99778986  0.28012114    -0.08500
C375        C  0.26120524  0.00143148  0.31272529     0.61900
H376        H  0.31537200  0.00608470  0.29804325     0.12500
H377        H  0.22094881  0.98384650  0.20122924     0.12600
C378        C  0.27543234  0.98810523  0.18676576     0.62100
F379        F  0.24564053  0.96876391  0.31871755    -0.23100
F380        F  0.24389479  0.03529432  0.31369026    -0.20400
F381        F  0.29058488  0.00410136  0.33679670    -0.20100
F382        F  0.29531542  0.95631061  0.18709523    -0.20100
F383        F  0.28833200  0.02228819  0.17940853    -0.20500
F384        F  0.24644943  0.98144545  0.16292465    -0.23100
C385        C  0.47108270  0.64075295  0.11990400    -0.06000
C386        C  0.47175805  0.63130626  0.08940048     0.00000
C387        C  0.00291298  0.62646276  0.08331528    -0.08600
C388        C  0.03082783  0.62496474  0.11069427    -0.06000
C389        C  0.02971056  0.62866579  0.14154131    -0.00100
C390        C  0.99987383  0.63847693  0.14486375    -0.08500
C391        C  0.49648838  0.65793709  0.17828777     0.61900
H392        H  0.44818774  0.64536751  0.12276314     0.12500
H393        H  0.05374179  0.61940167  0.10812269     0.12600
C394        C  0.00699984  0.62667860  0.05082487     0.62100
F395        F  0.46816750  0.67834037  0.17334824    -0.23100
F396        F  0.02232882  0.67764295  0.19185650    -0.20400
F397        F  0.99862128  0.61987661  0.19577713    -0.20100
F398        F  0.98835579  0.65637881  0.03214776    -0.20100
F399        F  0.49657061  0.58895943  0.03948195    -0.20500
F400        F  0.03829067  0.63405364  0.05341891    -0.23100
C401        C  0.35200897  0.48439687  0.13992864    -0.06000
C402        C  0.37735810  0.45941776  0.15667035     0.00000
C403        C  0.40008584  0.44825470  0.14187445    -0.08600
C404        C  0.39817929  0.46630263  0.11277979    -0.06000
C405        C  0.37463726  0.49444411  0.09816151    -0.00100
C406        C  0.35021749  0.50216651  0.11110931    -0.08500
C407        C  0.32180159  0.52853161  0.09435920     0.61900
H408        H  0.33403142  0.49147913  0.15036065     0.12500
H409        H  0.41603734  0.46014276  0.10198625     0.12600
C410        C  0.42686692  0.41857263  0.15652369     0.62100
F411        F  0.33144500  0.56733625  0.09382795    -0.23100
F412        F  0.30735136  0.51470661  0.06368873    -0.20400
F413        F  0.29915773  0.52829277  0.10915769    -0.20100
F414        F  0.41423981  0.38301371  0.16183379    -0.20100
F415        F  0.44783197  0.43336370  0.18490170    -0.20500
F416        F  0.44423070  0.41062379  0.13672661    -0.23100
C417        C  0.39242690  0.56220250  0.39224312    -0.06000
C418        C  0.36728146  0.54969917  0.40222654     0.00000
C419        C  0.34310507  0.52528863  0.38188619    -0.08600
C420        C  0.34624326  0.51160070  0.35336338    -0.06000
C421        C  0.37320505  0.52025309  0.34488849    -0.00100
C422        C  0.39582948  0.54789870  0.36367817    -0.08500
C423        C  0.42354389  0.56161382  0.35410820     0.61900
H424        H  0.41046952  0.58145809  0.40797399     0.12500
H425        H  0.32828230  0.49169455  0.33828381     0.12600
C426        C  0.31486515  0.51192639  0.39086030     0.62100
F427        F  0.44389968  0.58638018  0.37693083    -0.23100
F428        F  0.41188842  0.58233654  0.32584174    -0.20400
F429        F  0.44106898  0.52939078  0.34991494    -0.20100
F430        F  0.30261619  0.54360539  0.40294927    -0.20100
F431        F  0.32445686  0.48245030  0.41357665    -0.20500
F432        F  0.29057134  0.49693111  0.36474734    -0.23100
C433        C  0.22080566  0.52665299  0.49650690    -0.06000
C434        C  0.21786550  0.48520855  0.48995219     0.00000
C435        C  0.24448395  0.46503103  0.48667609    -0.08600
C436        C  0.27258454  0.48675117  0.49018075    -0.06000
C437        C  0.27702166  0.52611382  0.99738838    -0.00100
C438        C  0.25019594  0.54597376  0.00050934    -0.08500
C439        C  0.25098133  0.59016633  0.00767506     0.61900
H440        H  0.20036860  0.54248698  0.49845165     0.12500
H441        H  0.29297406  0.47089561  0.48815642     0.12600
C442        C  0.24374122  0.42065694  0.48023289     0.62100
F443        F  0.22014967  0.60751617  0.50440017    -0.23100
F444        F  0.25971367  0.61253285  0.48461165    -0.20400
F445        F  0.27144711  0.59735295  0.03840319    -0.20100
F446        F  0.22296983  0.41255906  0.44981539    -0.20100
F447        F  0.23575339  0.39891573  0.00408872    -0.20500
F448        F  0.27347554  0.40598351  0.48247151    -0.23100
C449        C  0.02388467  0.49534928  0.02053698    -0.06000
C450        C  0.02580390  0.49884146  0.48992918     0.00000
C451        C  0.99869632  0.49991032  0.46206426    -0.08600
C452        C  0.46946927  0.50238721  0.46827763    -0.06000
C453        C  0.46901129  0.50900962  0.99692384    -0.00100
C454        C  0.49425744  0.49808475  0.02462800    -0.08500
C455        C  0.48909576  0.48957545  0.05585467     0.61900
H456        H  0.04476002  0.49105139  0.04161836     0.12500
H457        H  0.44819909  0.50652290  0.44750783     0.12600
C458        C  0.00150043  0.50100300  0.42915986     0.62100
F459        F  0.01951419  0.49068504  0.08015359    -0.23100
F460        F  0.46715390  0.45927587  0.05128345    -0.20400
F461        F  0.47782393  0.52318061  0.06657247    -0.20100
F462        F  0.01872889  0.46873678  0.42454631    -0.20100
F463        F  0.01677311  0.53551025  0.42606336    -0.20500
F464        F  0.47227948  0.50610229  0.40826459    -0.23100
C465        C  0.27383399  0.86294095  0.40056403    -0.06000
C466        C  0.30136154  0.87559787  0.39448147     0.00000
C467        C  0.29788420  0.88556115  0.36255425    -0.08600
C468        C  0.26715213  0.88508482  0.33912910    -0.06000
C469        C  0.23915591  0.87646852  0.34585401    -0.00100
C470        C  0.24283610  0.86370140  0.37717863    -0.08500
C471        C  0.21452500  0.85130510  0.38644217     0.61900
H472        H  0.27642638  0.85419264  0.42456305     0.12500
H473        H  0.26480578  0.89363889  0.31516421     0.12600
C474        C  0.32594477  0.89757958  0.35263412     0.62100
F475        F  0.22396811  0.83606637  0.41700119    -0.23100
F476        F  0.19732696  0.82216858  0.36572742    -0.20400
F477        F  0.19506651  0.88375854  0.38545435    -0.20100
F478        F  0.34959845  0.86889393  0.36205592    -0.20100
F479        F  0.33782566  0.93380174  0.36627769    -0.20500
F480        F  0.31735897  0.90156350  0.31991321    -0.23100
C481        C  0.37188282  0.77558280  0.47115137    -0.06000
C482        C  0.38623672  0.79687608  0.49970686     0.00000
C483        C  0.39802514  0.77705272  0.02811831    -0.08600
C484        C  0.38631221  0.73867239  0.02988292    -0.06000
C485        C  0.36675804  0.71833279  0.00266904    -0.00100
C486        C  0.36221875  0.73585333  0.47094889    -0.08500
C487        C  0.34658641  0.71426187  0.43944607     0.61900
H488        H  0.36785076  0.79055176  0.44875402     0.12500
H489        H  0.39401114  0.72308116  0.05241134     0.12600
C490        C  0.42028770  0.79683824  0.05823190     0.62100
F491        F  0.34031305  0.73954459  0.41372003    -0.23100
F492        F  0.31797479  0.69809436  0.43886367    -0.20400
F493        F  0.36625782  0.68422337  0.43569684    -0.20100
F494        F  0.40540207  0.82905972  0.06652920    -0.20100
F495        F  0.44761780  0.80941676  0.05321605    -0.20500
F496        F  0.42936804  0.77105969  0.08381499    -0.23100
C497        C  0.02755430  0.02388804  0.02556318    -0.06000
C498        C  0.03894749  0.02135722  0.99979765     0.00000
C499        C  0.02533837  0.99389527  0.47700285    -0.08600
C500        C  0.99846557  0.97270137  0.47803630    -0.06000
C501        C  0.48657876  0.97751169  0.50094520    -0.00100
C502        C  0.50015201  0.00653834  0.02468085    -0.08500
C503        C  0.48714605  0.01395259  0.05155321     0.61900
H504        H  0.04069138  0.04189099  0.04604873     0.12500
H505        H  0.48825346  0.94986210  0.45854053     0.12600
C506        C  0.03597283  0.98648235  0.44868587     0.62100
F507        F  0.50798429  0.03614123  0.07605133    -0.23100
F508        F  0.48214108  0.97814184  0.06398481    -0.20400
F509        F  0.45873249  0.03478387  0.04038804    -0.20100
F510        F  0.06426693  0.96523941  0.45832582    -0.20100
F511        F  0.03973915  0.02245121  0.43581688    -0.20500
F512        F  0.01390805  0.96473133  0.42477781    -0.23100
C513        C  0.23001834  0.97852634  0.47922414    -0.06000
C514        C  0.23271103  0.99039358  0.00860516     0.00000
C515        C  0.26287258  0.00645473  0.02611329    -0.08600
C516        C  0.28717501  0.00413491  0.01316637    -0.06000
C517        C  0.28438144  0.99366336  0.48375522    -0.00100
C518        C  0.25415856  0.97767648  0.46594506    -0.08500
C519        C  0.24641012  0.95936825  0.43306776     0.61900
H520        H  0.20641869  0.96784283  0.46519483     0.12500
H521        H  0.31055769  0.01557912  0.02705844     0.12600
C522        C  0.26994950  0.02736832  0.05803981     0.62100
F523        F  0.21682169  0.97242705  0.41327406    -0.23100
F524        F  0.24555082  0.91867672  0.43579602    -0.20400
F525        F  0.26846404  0.96920896  0.41889494    -0.20100
F526        F  0.24514446  0.02420080  0.06979254    -0.20100
F527        F  0.27568959  0.06710994  0.05478760    -0.20500
F528        F  0.29681240  0.01075857  0.08015400    -0.23100
C529        C  0.40955931  0.98502305  0.10103694    -0.06000
C530        C  0.38360020  0.96095021  0.08403337     0.00000
C531        C  0.36143064  0.94962932  0.09912979    -0.08600
C532        C  0.36479130  0.96608201  0.12932129    -0.06000
C533        C  0.38893988  0.99327703  0.14439333    -0.00100
C534        C  0.41244998  0.00192359  0.13062673    -0.08500
C535        C  0.44062627  0.02906328  0.14682817     0.61900
H536        H  0.42711218  0.99222798  0.09023219     0.12500
H537        H  0.34752724  0.95958966  0.14068200     0.12600
C538        C  0.33387458  0.92135213  0.08374247     0.62100
F539        F  0.46216438  0.02989390  0.13071222    -0.23100
F540        F  0.45671476  0.01563873  0.17724360    -0.20400
F541        F  0.43022746  0.06753607  0.14822920    -0.20100
F542        F  0.34556264  0.88518088  0.07769108    -0.20100
F543        F  0.31347942  0.93703933  0.05561705    -0.20500
F544        F  0.31610544  0.91447774  0.10320057    -0.23100
C545        C  0.41940429  0.00720860  0.38839234    -0.06000
C546        C  0.39382465  0.01820048  0.39861841     0.00000
C547        C  0.37294472  0.04912475  0.38231643    -0.08600
C548        C  0.37618015  0.06424812  0.35416956    -0.06000
C549        C  0.39970219  0.04976425  0.34245971    -0.00100
C550        C  0.42289887  0.02291947  0.36084598    -0.08500
C551        C  0.45014687  0.00832037  0.35056860     0.61900
H552        H  0.43621747  0.98520195  0.40135060     0.12500
H553        H  0.35910839  0.08522790  0.34000879     0.12600
C554        C  0.34678872  0.06534798  0.39357733     0.62100
F555        F  0.47626126  0.99801357  0.37675653    -0.23100
F556        F  0.45985351  0.03755169  0.33433831    -0.20400
F557        F  0.44044183  0.97531371  0.33107235    -0.20100
F558        F  0.32902223  0.09467098  0.37363829    -0.20100
F559        F  0.36028512  0.08179451  0.42369145    -0.20500
F560        F  0.32621041  0.03524184  0.39449378    -0.23100
Fe561      Fe  0.40121439  0.90933402  0.95156389     1.65800
Fe562      Fe  0.34932412  0.89951922  0.98987004     1.73200
Fe563      Fe  0.38342327  0.98781389  0.98962156     1.54400
O564        O  0.43124750  0.98746343  0.99434501    -0.81900
O565        O  0.31260010  0.93666810  0.96968367    -0.80200
O566        O  0.44578825  0.92635643  0.98452192    -0.84400
O567        O  0.40188458  0.96197484  0.92831055    -0.79200
O568        O  0.39634518  0.97949552  0.53817033    -0.81000
O569        O  0.33363086  0.86833083  0.94646409    -0.83700
C570        C  0.38768412  0.99537950  0.92497034     0.97000
C571        C  0.45255881  0.96264142  0.99357309     1.04500
O572        O  0.37838311  0.93246696  0.97738291    -1.12700
O573        O  0.38284620  0.86381364  0.51400148    -0.75200
O574        O  0.40175299  0.85130374  0.97041383    -0.78600
O575        O  0.37234494  0.00617012  0.94296774    -0.79300
C576        C  0.39482469  0.83832219  0.99407557     0.95900
O577        O  0.35742643  0.89735731  0.91671019    -0.77300
O578        O  0.36029170  0.93372518  0.53652505    -0.82500
C579        C  0.31162691  0.97216758  0.97833828     0.98500
C580        C  0.38028960  0.95985881  0.55167977     1.04500
O581        O  0.33614010  0.99444292  0.98710790    -0.78100
C582        C  0.33314019  0.88026431  0.91929874     1.02800
Fe583      Fe  0.36618382  0.60151585  0.54253487     1.65800
Fe584      Fe  0.40762201  0.60226263  0.49184555     1.73200
Fe585      Fe  0.37185675  0.51865544  0.50040644     1.54400
O586        O  0.37154728  0.50104880  0.54519834    -0.81900
O587        O  0.37417474  0.59714856  0.94748612    -0.80200
O588        O  0.37815832  0.55602795  0.57456681    -0.84400
O589        O  0.31955467  0.57515163  0.52179748    -0.79200
O590        O  0.41983516  0.50452477  0.51380680    -0.81000
O591        O  0.38944561  0.65956855  0.99555199    -0.83700
C592        C  0.30785029  0.54656437  0.50166614     0.97000
C593        C  0.37438696  0.51893367  0.57121410     1.04500
O594        O  0.38107192  0.57446573  0.51148603    -1.12700
O595        O  0.44146006  0.61083642  0.53570675    -0.75200
O596        O  0.41294437  0.62508312  0.56679546    -0.78600
O597        O  0.32573966  0.52769622  0.98785881    -0.79300
C598        C  0.43992776  0.62226547  0.56222234     0.95900
O599        O  0.35232865  0.65352068  0.51587469    -0.77300
O600        O  0.43106220  0.55778671  0.98418532    -0.82500
C601        C  0.36856609  0.56246097  0.93557558     0.98500
C602        C  0.43736566  0.52015106  0.50006771     1.04500
O603        O  0.37004408  0.53170523  0.95263672    -0.78100
C604        C  0.36870316  0.67309782  0.50277331     1.02800
Fe605      Fe  0.13627863  0.91602052  0.79805591     1.65800
Fe606      Fe  0.17547093  0.90784198  0.74579130     1.73200
Fe607      Fe  0.14215131  0.99443966  0.75303596     1.54400
O608        O  0.09430715  0.98659130  0.74135933    -0.81900
O609        O  0.19865788  0.95479373  0.73679059    -0.80200
O610        O  0.09071596  0.94515088  0.77887829    -0.84400
O611        O  0.15115403  0.96285592  0.82906071    -0.79200
O612        O  0.13765527  0.98064361  0.70579162    -0.81000
O613        O  0.21039269  0.90085291  0.78931110    -0.83700
C614        C  0.14769432  0.99984080  0.82457414     0.97000
C615        C  0.07912239  0.97295942  0.75826169     1.04500
O616        O  0.15052071  0.93922690  0.76559624    -1.12700
O617        O  0.15746507  0.85494127  0.75111108    -0.75200
O618        O  0.11963149  0.86375043  0.77193024    -0.78600
O619        O  0.14403730  0.01568475  0.79783531    -0.79300
C620        C  0.13570665  0.84143066  0.75989521     0.95900
O621        O  0.18221968  0.88993670  0.82116330    -0.77300
O622        O  0.14190180  0.91484510  0.70142603    -0.82500
C623        C  0.20673741  0.98756969  0.75072783     0.98500
C624        C  0.13575204  0.94910631  0.68908140     1.04500
O625        O  0.19020537  0.00562138  0.76463916    -0.78100
C626        C  0.20898417  0.89093454  0.81623115     1.02800
Fe627      Fe  0.13105233  0.60093292  0.69617745     1.65800
Fe628      Fe  0.08326658  0.60146038  0.74081758     1.73200
Fe629      Fe  0.12488172  0.51899303  0.73753833     1.54400
O630        O  0.13052877  0.50123445  0.69502110    -0.81900
O631        O  0.11043851  0.59213766  0.78788148    -0.82600
O632        O  0.12116401  0.55468791  0.66431147    -0.84400
O633        O  0.17712647  0.57475891  0.71893997    -0.79200
O634        O  0.07782503  0.50135423  0.72022467    -0.81000
O635        O  0.10232942  0.65609617  0.74236299    -0.83700
C636        C  0.18862673  0.54764461  0.74004975     0.97000
C637        C  0.12784733  0.51822155  0.66897387     1.04500
O638        O  0.11360375  0.57408215  0.72499897    -1.12700
O639        O  0.05307596  0.61112880  0.69521105    -0.75200
O640        O  0.08567223  0.62519047  0.66858713    -0.78600
O641        O  0.17228101  0.53255314  0.75533860    -0.79300
C642        C  0.05751974  0.62293913  0.67023540     0.95900
O643        O  0.14279249  0.65220699  0.72445708    -0.77300
O644        O  0.05898397  0.55157711  0.74122948    -0.82500
C645        C  0.11788090  0.55762516  0.79929761     0.98500
C646        C  0.05653073  0.51726319  0.72922529     1.04500
O647        O  0.12183418  0.52869252  0.78243913    -0.78100
C648        C  0.12531442  0.67181529  0.73666714     1.02800
Fe649      Fe  0.36480744  0.41347840  0.79435140     1.65800
Fe650      Fe  0.41358497  0.40479040  0.75238340     1.73200
Fe651      Fe  0.37755133  0.49221233  0.75374585     1.54400
O652        O  0.33091960  0.49010355  0.75140928    -0.81900
O653        O  0.44868353  0.44461467  0.77159712    -0.80200
O654        O  0.31827530  0.43017503  0.76402134    -0.84400
O655        O  0.36437897  0.46567912  0.81813197    -0.79200
O656        O  0.36407065  0.47650712  0.70593437    -0.81000
O657        O  0.43180490  0.37337696  0.79467182    -0.83700
C658        C  0.37570655  0.50039493  0.81985235     0.97000
C659        C  0.31047753  0.46624182  0.75493958     1.04500
O660        O  0.38461405  0.43693168  0.76631993    -1.12700
O661        O  0.37902410  0.36419931  0.73295256    -0.75200
O662        O  0.36409923  0.35580337  0.77477598    -0.78600
O663        O  0.38927309  0.51231780  0.80065571    -0.79300
C664        C  0.37081926  0.34179047  0.75111663     0.95900
O665        O  0.41057216  0.40158232  0.82736154    -0.77300
O666        O  0.40086970  0.43115155  0.70816530    -0.82500
C667        C  0.44827886  0.47885604  0.76031590     0.98500
C668        C  0.38019769  0.45610229  0.69260001     1.04500
O669        O  0.42364679  0.50079346  0.75354218    -0.78100
C670        C  0.43399579  0.38389284  0.82260156     1.02800
Fe671      Fe  0.39776346  0.10468079  0.70488359     1.65800
Fe672      Fe  0.35402863  0.10675122  0.75320463     1.73200
Fe673      Fe  0.39134431  0.02310944  0.74623130     1.54400
O674        O  0.39333445  0.00528685  0.70153132    -0.81900
O675        O  0.38482623  0.09801145  0.79885583    -0.80200
O676        O  0.38448319  0.05984606  0.67222107    -0.84400
O677        O  0.44357984  0.07640058  0.72551912    -0.79200
O678        O  0.34400882  0.00816962  0.73125262    -0.81000
O679        O  0.37234602  0.16127143  0.75169109    -0.83700
C680        C  0.45472264  0.04910282  0.74667205     0.97000
C681        C  0.38925335  0.02296886  0.67531294     1.04500
O682        O  0.38164114  0.07845951  0.73487537    -1.12700
O683        O  0.32153822  0.11447643  0.70839631    -0.75200
O684        O  0.35203233  0.13008113  0.67989908    -0.78600
O685        O  0.43847324  0.03531842  0.76227290    -0.79300
C686        C  0.32437378  0.12545830  0.68233450     0.95900
O687        O  0.41239508  0.15537561  0.73322008    -0.77300
O688        O  0.33053419  0.05743006  0.75751246    -0.82500
C689        C  0.39144136  0.06328672  0.81023471     0.98500
C690        C  0.32567078  0.02379496  0.74424841     1.04500
O691        O  0.39169637  0.03304138  0.79282000    -0.78100
C692        C  0.39508515  0.17591044  0.74496202     1.02800
Fe693      Fe  0.12994417  0.09597697  0.54815655     1.65800
Fe694      Fe  0.17728709  0.10095597  0.50260903     1.73200
Fe695      Fe  0.13740074  0.01594566  0.50345359     1.54400
O696        O  0.13652953  0.99517619  0.54678952    -0.81900
O697        O  0.15158195  0.08882186  0.95731534    -0.80200
O698        O  0.14030340  0.04820708  0.57801417    -0.84400
O699        O  0.08392683  0.06972671  0.52589926    -0.79200
O700        O  0.18471302  0.99939993  0.51655623    -0.81000
O701        O  0.15879288  0.14984313  0.00560425    -0.83700
C702        C  0.07282223  0.04142209  0.50551063     0.97000
C703        C  0.13809951  0.01109878  0.57311620     1.04500
O704        O  0.14761962  0.07114118  0.51781563    -1.12700
O705        O  0.20750118  0.11086018  0.54857305    -0.75200
O706        O  0.17501805  0.11971523  0.57629288    -0.78600
O707        O  0.08762746  0.02336343  0.98905261    -0.79300
C708        C  0.20309396  0.11924914  0.57452190     0.95900
O709        O  0.11742699  0.14912114  0.52225806    -0.77300
O710        O  0.20327486  0.04688122  0.00230780    -0.82500
C711        C  0.14151890  0.05629610  0.94284357     0.98500
C712        C  0.20616967  0.01765281  0.50969008     1.04500
O713        O  0.13555154  0.02594007  0.95687423    -0.78100
C714        C  0.13338517  0.16904143  0.50875390     1.02800
Fe715      Fe  0.13025126  0.40524308  0.94552609     1.65800
Fe716      Fe  0.09091493  0.40102209  0.99774443     1.73200
Fe717      Fe  0.12238545  0.48715695  0.98726849     1.54400
O718        O  0.17056003  0.48073562  0.99944265    -0.81900
O719        O  0.06670906  0.44894762  0.00483547    -0.80200
O720        O  0.17635599  0.43356674  0.96597140    -0.84400
O721        O  0.11671376  0.45098209  0.91342184    -0.79200
O722        O  0.12475763  0.48025353  0.53427777    -0.81000
O723        O  0.05599526  0.39152383  0.95458714    -0.83700
C724        C  0.11895721  0.48831175  0.91655962     0.97000
C725        C  0.18727983  0.46323125  0.98531999     1.04500
O726        O  0.11534885  0.43087829  0.97682535    -1.12700
O727        O  0.10860676  0.35041405  0.49511413    -0.75200
O728        O  0.14620731  0.35329818  0.97246660    -0.78600
O729        O  0.12060280  0.50594298  0.94230072    -0.79300
C730        C  0.13157631  0.33260095  0.98679554     0.95900
O731        O  0.08352648  0.38040873  0.92194762    -0.77300
O732        O  0.12270833  0.41498098  0.54133310    -0.82500
C733        C  0.05786051  0.48068049  0.98973702     0.98500
C734        C  0.12728374  0.45017068  0.55226558     1.04500
O735        O  0.07398206  0.49741429  0.97502644    -0.78100
C736        C  0.05687134  0.38173158  0.92742424     1.02800
C737        C  0.11935090  0.26351500  0.96862044    -0.06000
C738        C  0.13742549  0.28959063  0.99267920     0.00000
C739        C  0.14701963  0.27826960  0.52406630    -0.08600
C740        C  0.14232779  0.23775017  0.52845467    -0.06000
C741        C  0.12836636  0.21200277  0.50259780    -0.00100
C742        C  0.11670450  0.22282676  0.97450802    -0.08500
C743        C  0.09866645  0.19511049  0.94748073     0.61900
H744        H  0.10673073  0.27553017  0.94521739     0.12500
H745        H  0.15119101  0.22564936  0.55235001     0.12600
C746        C  0.16376020  0.30297758  0.55365657     0.62100
F747        F  0.08331854  0.21552333  0.91959759    -0.23100
F748        F  0.07596822  0.17445076  0.95568478    -0.20400
F749        F  0.11972577  0.16842183  0.94166792    -0.20100
F750        F  0.14566142  0.30327155  0.57332482    -0.20100
F751        F  0.16894132  0.34179713  0.54692565    -0.20500
F752        F  0.19315410  0.28607168  0.56987167    -0.23100
C753        C  0.26462476  0.12420067  0.65998171    -0.06000
C754        C  0.29349566  0.13099675  0.65432510     0.00000
C755        C  0.29132721  0.13909827  0.62241246    -0.08600
C756        C  0.26096938  0.13804280  0.59790293    -0.06000
C757        C  0.23262080  0.12755435  0.60332958    -0.00100
C758        C  0.23461428  0.12130551  0.63539256    -0.08500
C759        C  0.20581313  0.10949095  0.64404278     0.61900
H760        H  0.26573181  0.11908376  0.68419052     0.12500
H761        H  0.25936910  0.14400804  0.57364470     0.12600
C762        C  0.32060839  0.14791667  0.61362414     0.62100
F763        F  0.21345183  0.10373613  0.67648879    -0.23100
F764        F  0.19347301  0.07423696  0.62886838    -0.20400
F765        F  0.18285182  0.13901963  0.63503407    -0.20100
F766        F  0.34069020  0.11524175  0.61996794    -0.20100
F767        F  0.33651839  0.18039220  0.63090025    -0.20500
F768        F  0.31275293  0.15656840  0.58158004    -0.23100
C769        C  0.02478385  0.36595262  0.86999075    -0.06000
C770        C  0.02515043  0.37375755  0.90108265     0.00000
C771        C  0.99487767  0.37552571  0.90570763    -0.08600
C772        C  0.46546571  0.38455751  0.88102091    -0.06000
C773        C  0.46494353  0.37674717  0.84995079    -0.00100
C774        C  0.99602589  0.36310959  0.84345152    -0.08500
C775        C  0.99799680  0.34843418  0.81185423     0.61900
H776        H  0.04743716  0.36212755  0.86647890     0.12500
H777        H  0.44305778  0.39144621  0.88424769     0.12600
C778        C  0.99144729  0.37372939  0.93845713     0.62100
F779        F  0.02857278  0.33633798  0.81471440    -0.23100
F780        F  0.48783917  0.37795112  0.79179640    -0.20400
F781        F  0.97809233  0.31608939  0.80115671    -0.20100
F782        F  0.00065693  0.40912520  0.95475339    -0.20100
F783        F  0.00982872  0.34294950  0.95580317    -0.20500
F784        F  0.45921210  0.38709428  0.93912452    -0.23100
C785        C  0.37984588  0.23925901  0.71861294    -0.06000
C786        C  0.39687834  0.21939639  0.74685041     0.00000
C787        C  0.40469000  0.23962195  0.77637064    -0.08600
C788        C  0.39402825  0.27896761  0.77673431    -0.06000
C789        C  0.37609963  0.29862211  0.74853463    -0.00100
C790        C  0.36924839  0.27864257  0.71882554    -0.08500
C791        C  0.34995495  0.29804935  0.68749760     0.61900
H792        H  0.37335962  0.22278293  0.69634543     0.12500
H793        H  0.40042690  0.29511457  0.79913054     0.12600
C794        C  0.42490438  0.21981821  0.80713729     0.62100
F795        F  0.33905743  0.27036974  0.66307184    -0.23100
F796        F  0.36869469  0.32511298  0.67895579    -0.20400
F797        F  0.32363334  0.31728570  0.69047396    -0.20100
F798        F  0.45368889  0.20806136  0.80459393    -0.20100
F799        F  0.40943538  0.18689334  0.81292237    -0.20500
F800        F  0.43125378  0.24528115  0.83308029    -0.23100
C801        C  0.22344732  0.48711362  0.75091498    -0.06000
C802        C  0.22058712  0.52847640  0.74487357     0.00000
C803        C  0.24702962  0.54843832  0.74168629    -0.08600
C804        C  0.27475737  0.52635643  0.74398857    -0.06000
C805        C  0.27794811  0.48480446  0.75009714    -0.00100
C806        C  0.25146183  0.46498419  0.75375839    -0.08500
C807        C  0.25232303  0.42081383  0.76046658     0.61900
H808        H  0.20300954  0.47175260  0.75293619     0.12500
H809        H  0.29454333  0.54233158  0.74119221     0.12600
C810        C  0.24652902  0.59305251  0.73669998     0.62100
F811        F  0.22352469  0.40728482  0.76165615    -0.23100
F812        F  0.27554930  0.41288196  0.78958070    -0.20400
F813        F  0.25884826  0.39992211  0.73660263    -0.20100
F814        F  0.23613267  0.61220102  0.75888644    -0.20100
F815        F  0.22635061  0.60219694  0.70632701    -0.20500
F816        F  0.27650593  0.60759458  0.74019013    -0.23100
C817        C  0.99985680  0.51905353  0.71451925    -0.06000
C818        C  0.02782217  0.49683141  0.72831530     0.00000
C819        C  0.02972167  0.46899040  0.75216336    -0.08600
C820        C  0.00416966  0.46644974  0.76324359    -0.06000
C821        C  0.47606508  0.49012298  0.75141638    -0.00100
C822        C  0.47414976  0.51777622  0.72687813    -0.08500
C823        C  0.44607965  0.54595871  0.71281090     0.61900
H824        H  0.99968771  0.54091331  0.69677448     0.12500
H825        H  0.00591013  0.44612445  0.78235982     0.12600
C826        C  0.05922831  0.44349258  0.76690834     0.62100
F827        F  0.41868124  0.52489598  0.69750958    -0.23100
F828        F  0.44186400  0.56911792  0.73679062    -0.20400
F829        F  0.45063942  0.57123920  0.69052399    -0.20100
F830        F  0.06654634  0.42363906  0.74306749    -0.20100
F831        F  0.05474444  0.41547867  0.78747107    -0.20500
F832        F  0.08469536  0.46697264  0.78400111    -0.23100
C833        C  0.14539454  0.52221484  0.84881307    -0.06000
C834        C  0.12102492  0.54863067  0.83270499     0.00000
C835        C  0.09785646  0.55954917  0.84663432    -0.08600
C836        C  0.09827182  0.54019433  0.87476580    -0.06000
C837        C  0.12139802  0.51138645  0.88934980    -0.00100
C838        C  0.14651583  0.50412197  0.87726147    -0.08500
C839        C  0.17558483  0.47943881  0.89521712     0.61900
H840        H  0.16342153  0.51519412  0.83838292     0.12500
H841        H  0.07996585  0.54638586  0.88498261     0.12600
C842        C  0.07234039  0.59039690  0.83155025     0.62100
F843        F  0.19794738  0.47839287  0.88007909    -0.23100
F844        F  0.16712775  0.44075903  0.89840742    -0.20400
F845        F  0.18990441  0.49640453  0.92483349    -0.20100
F846        F  0.05374364  0.57828438  0.80123323    -0.20100
F847        F  0.08664680  0.62622339  0.82988059    -0.20500
F848        F  0.05246921  0.59649313  0.84911582    -0.23100
C849        C  0.15502108  0.48804429  0.60065432    -0.06000
C850        C  0.13301135  0.45818427  0.58627944     0.00000
C851        C  0.11293051  0.44323524  0.60231368    -0.08600
C852        C  0.11326980  0.46220776  0.63064543    -0.06000
C853        C  0.13279196  0.49508598  0.64289513    -0.00100
C854        C  0.15558066  0.50660661  0.62899282    -0.08500
C855        C  0.18091583  0.53761963  0.64421216     0.61900
H856        H  0.17073637  0.49818719  0.58847668     0.12500
H857        H  0.09686715  0.45316532  0.64236154     0.12600
C858        C  0.08978942  0.40935394  0.58882849     0.62100
F859        F  0.20251051  0.54099430  0.62832108    -0.23100
F860        F  0.19774894  0.52662948  0.67512493    -0.20400
F861        F  0.16711243  0.57445802  0.64413680    -0.20100
F862        F  0.10621915  0.37614361  0.58445465    -0.20100
F863        F  0.06743899  0.42027678  0.56004300    -0.20500
F864        F  0.07359936  0.39902256  0.60905637    -0.23100
C865        C  0.10135017  0.73740502  0.73968182    -0.06000
C866        C  0.12939421  0.71511793  0.74338784     0.00000
C867        C  0.15922958  0.73442379  0.75426330    -0.08600
C868        C  0.15977468  0.77526426  0.76108697    -0.06000
C869        C  0.13168337  0.79772611  0.75656755    -0.00100
C870        C  0.10191455  0.77843226  0.74601156    -0.08500
C871        C  0.07095914  0.80096361  0.74058869     0.61900
H872        H  0.07855856  0.72238782  0.73118248     0.12500
H873        H  0.18253877  0.79039319  0.76954520     0.12600
C874        C  0.19032853  0.71239157  0.75897875     0.62100
F875        F  0.04455018  0.77665685  0.72848771    -0.23100
F876        F  0.06816488  0.83129236  0.71909830    -0.20400
F877        F  0.07069164  0.81677242  0.76916856    -0.20100
F878        F  0.19096996  0.69875506  0.72991076    -0.20100
F879        F  0.19309342  0.68062419  0.77918107    -0.20500
F880        F  0.21666204  0.73653930  0.77223032    -0.23100
C881        C  0.11562156  0.02355525  0.85628985    -0.06000
C882        C  0.14501983  0.02404869  0.85128848     0.00000
C883        C  0.17164501  0.04200825  0.87419582    -0.08600
C884        C  0.16881833  0.05542870  0.90315108    -0.06000
C885        C  0.13996277  0.05200886  0.90922536    -0.00100
C886        C  0.11240112  0.03853689  0.88452563    -0.08500
C887        C  0.07937024  0.03957874  0.88688664     0.61900
H888        H  0.09506196  0.01051865  0.83818385     0.12500
H889        H  0.18965443  0.06656797  0.92197731     0.12600
C890        C  0.20278604  0.04606550  0.86797788     0.62100
F891        F  0.05811104  0.05632645  0.85957321    -0.23100
F892        F  0.07837140  0.06211961  0.91253793    -0.20400
F893        F  0.06968241  0.00131539  0.88970466    -0.20100
F894        F  0.19775584  0.06913755  0.84121336    -0.20100
F895        F  0.21378973  0.00909670  0.86274137    -0.20500
F896        F  0.22614607  0.06390915  0.89334281    -0.23100
C897        C  0.15518255  0.94265690  0.64401472    -0.06000
C898        C  0.13023021  0.95396756  0.65488921     0.00000
C899        C  0.10519661  0.97810338  0.63552833    -0.08600
C900        C  0.10813245  0.99464536  0.60802842    -0.06000
C901        C  0.13456457  0.98650563  0.59876533    -0.00100
C902        C  0.15764485  0.95850126  0.61583123    -0.08500
C903        C  0.18537775  0.94731555  0.60513288     0.61900
H904        H  0.17409183  0.92387540  0.65905359     0.12500
H905        H  0.08988874  0.01512451  0.59400477     0.12600
C906        C  0.07530359  0.98769419  0.64306596     0.62100
F907        F  0.20628989  0.92134266  0.62611020    -0.23100
F908        F  0.20208154  0.98098410  0.60299434    -0.20400
F909        F  0.17393675  0.92914325  0.57550680    -0.20100
F910        F  0.07434350  0.02794557  0.64905053    -0.20100
F911        F  0.07347982  0.96703669  0.66899690    -0.20500
F912        F  0.04885826  0.97767439  0.61706002    -0.23100
C913        C  0.02415167  0.96948788  0.76079496    -0.06000
C914        C  0.04733712  0.99205326  0.75433631     0.00000
C915        C  0.04029105  0.03303241  0.74598272    -0.08600
C916        C  0.01021321  0.04890509  0.74387435    -0.06000
C917        C  0.48697744  0.03043339  0.75266269    -0.00100
C918        C  0.49449988  0.99029211  0.76356559    -0.08500
C919        C  0.47120474  0.96349204  0.77201958     0.61900
H920        H  0.02983291  0.93876937  0.76737543     0.12500
H921        H  0.00453367  0.07959446  0.73717927     0.12600
C922        C  0.06432216  0.06103276  0.74006878     0.62100
F923        F  0.48293461  0.92531217  0.77951331    -0.23100
F924        F  0.44292749  0.96060254  0.74652025    -0.20400
F925        F  0.46541319  0.97856891  0.79835155    -0.20100
F926        F  0.06983576  0.05001055  0.71252258    -0.20100
F927        F  0.09256253  0.06030719  0.76568527    -0.20500
F928        F  0.05365661  0.10000329  0.73637080    -0.23100
C929        C  0.29370949  0.00392404  0.77498558    -0.06000
C930        C  0.29712111  0.00468808  0.74488599     0.00000
C931        C  0.27036378  0.00241348  0.71685588    -0.08600
C932        C  0.24027651  0.00153252  0.71985194    -0.06000
C933        C  0.23674125  0.00240535  0.74995666    -0.00100
C934        C  0.26363789  0.00367034  0.77802755    -0.08500
C935        C  0.26056021  0.00586633  0.81080172     0.61900
H936        H  0.31486163  0.00698315  0.79605813     0.12500
H937        H  0.21916471  0.99865406  0.69873810     0.12600
C938        C  0.27378954  0.00136719  0.68421215     0.62100
F939        F  0.24294408  0.97436414  0.81524805    -0.23100
F940        F  0.24546644  0.04095370  0.81357185    -0.20400
F941        F  0.29003141  0.00484590  0.83480992    -0.20100
F942        F  0.29227991  0.96901177  0.68221949    -0.20100
F943        F  0.28818547  0.03570908  0.67927234    -0.20500
F944        F  0.24453881  0.99808579  0.66011933    -0.23100
C945        C  0.47045417  0.63927317  0.61952393    -0.06000
C946        C  0.47114445  0.63070619  0.58891549     0.00000
C947        C  0.00144667  0.62694076  0.58349076    -0.08600
C948        C  0.02931812  0.62642885  0.61099872    -0.06000
C949        C  0.02817747  0.63176682  0.64174214    -0.00100
C950        C  0.99818724  0.64210005  0.64451525    -0.08500
C951        C  0.49580410  0.65579761  0.67800880     0.61900
H952        H  0.44752721  0.64306927  0.62250087     0.12500
H953        H  0.05228796  0.62073032  0.60859040     0.12600
C954        C  0.00566971  0.62672046  0.55109423     0.62100
F955        F  0.46694778  0.67472967  0.67342386    -0.23100
F956        F  0.01999942  0.68645210  0.68824742    -0.20400
F957        F  0.99797804  0.62947325  0.69689178    -0.20100
F958        F  0.98666481  0.65584536  0.53199140    -0.20100
F959        F  0.49741298  0.59046809  0.53858073    -0.20500
F960        F  0.03688668  0.63471813  0.55373392    -0.23100
C961        C  0.35025766  0.48759004  0.64101066    -0.06000
C962        C  0.37641773  0.46416477  0.65853346     0.00000
C963        C  0.39954192  0.45335218  0.64417107    -0.08600
C964        C  0.39718176  0.47034511  0.61464475    -0.06000
C965        C  0.37255234  0.49659724  0.59894036    -0.00100
C966        C  0.34775621  0.50374162  0.61140946    -0.08500
C967        C  0.31825583  0.52756236  0.59319180     0.61900
H968        H  0.33203092  0.49436666  0.65118676     0.12500
H969        H  0.41539440  0.46471432  0.60418530     0.12600
C970        C  0.42714149  0.42504897  0.65965426     0.62100
F971        F  0.32631186  0.56643205  0.58999091    -0.23100
F972        F  0.30423967  0.51055991  0.56348200    -0.20400
F973        F  0.29583732  0.52795317  0.60827567    -0.20100
F974        F  0.41549151  0.38918714  0.66574041    -0.20100
F975        F  0.44755191  0.44128406  0.68771752    -0.20500
F976        F  0.44485966  0.41723088  0.64018016    -0.23100
C977        C  0.39149473  0.56704016  0.89282376    -0.06000
C978        C  0.36543678  0.55637222  0.90193982     0.00000
C979        C  0.33987511  0.53496896  0.88055373    -0.08600
C980        C  0.34319231  0.52022146  0.85237462    -0.06000
C981        C  0.37118790  0.52637655  0.84507289    -0.00100
C982        C  0.39460246  0.55278901  0.86423678    -0.08500
C983        C  0.42292596  0.56489979  0.85509233     0.61900
H984        H  0.41042352  0.58456254  0.90926642     0.12500
H985        H  0.32447609  0.50180823  0.83658201     0.12600
C986        C  0.30948651  0.52756019  0.88769038     0.62100
F987        F  0.44318444  0.59016302  0.87752143    -0.23100
F988        F  0.41216419  0.58458084  0.82628360    -0.20400
F989        F  0.44013446  0.53169144  0.85219778    -0.20100
F990        F  0.29853409  0.56295815  0.89616026    -0.20100
F991        F  0.31529894  0.50097881  0.91246053    -0.20500
F992        F  0.28558469  0.51215844  0.86144206    -0.23100
C993        C  0.22204573  0.52397697  0.99661722    -0.06000
C994        C  0.21938096  0.48244983  0.99020363     0.00000
C995        C  0.24636319  0.46252224  0.98758332    -0.08600
C996        C  0.27433519  0.48460846  0.99098153    -0.06000
C997        C  0.27561435  0.52812354  0.49689591    -0.00100
C998        C  0.24898275  0.54837193  0.50009332    -0.08500
C999        C  0.24984577  0.59273683  0.50658411     0.61900
H1000       H  0.20147189  0.53962976  0.99836514     0.12500
H1001       H  0.29489299  0.46892831  0.98921196     0.12600
C1002       C  0.24612890  0.41798790  0.98214252     0.62100
F1003       F  0.22117277  0.60476743  0.00523917    -0.23100
F1004       F  0.26131384  0.61070808  0.98636960    -0.20400
F1005       F  0.27069370  0.60068649  0.53699444    -0.20100
F1006       F  0.22601914  0.40891123  0.95163857    -0.20100
F1007       F  0.23391471  0.40087219  0.50223539    -0.20500
F1008       F  0.27619901  0.40347088  0.98553450    -0.23100
C1009       C  0.02229764  0.49756831  0.52007928    -0.06000
C1010       C  0.02776691  0.49629801  0.99057326     0.00000
C1011       C  0.00110805  0.50005630  0.96248556    -0.08600
C1012       C  0.47462609  0.51505127  0.96809425    -0.06000
C1013       C  0.46633016  0.50185401  0.49857316    -0.00100
C1014       C  0.49342009  0.49803824  0.52622541    -0.08500
C1015       C  0.49068057  0.49550420  0.55914307     0.61900
H1016       H  0.04353781  0.49504434  0.54107875     0.12500
H1017       H  0.45480054  0.52376422  0.94718344     0.12600
C1018       C  0.00443060  0.50120089  0.92975850     0.62100
F1019       F  0.01881465  0.48835049  0.57976222    -0.23100
F1020       F  0.47223872  0.46304430  0.56016532    -0.20400
F1021       F  0.47653159  0.52947399  0.56583035    -0.20100
F1022       F  0.02005187  0.46766374  0.92462873    -0.20100
F1023       F  0.02164328  0.53440947  0.92765700    -0.20500
F1024       F  0.48191440  0.52794351  0.91071484    -0.23100
C1025       C  0.27491933  0.86277808  0.89594702    -0.06000
C1026       C  0.30267627  0.87634711  0.89080543     0.00000
C1027       C  0.29945767  0.88927385  0.85955130    -0.08600
C1028       C  0.26869254  0.89174786  0.83629406    -0.06000
C1029       C  0.24053984  0.88198171  0.84230901    -0.00100
C1030       C  0.24403860  0.86505753  0.87238327    -0.08500
C1031       C  0.21568453  0.84894503  0.87982255     0.61900
H1032       H  0.27730861  0.85159295  0.91928519     0.12500
H1033       H  0.26653499  0.90303915  0.81306801     0.12600
C1034       C  0.32787910  0.90112670  0.85012858     0.62100
F1035       F  0.22502137  0.82939697  0.90874582    -0.23100
F1036       F  0.19924312  0.82208744  0.85640864    -0.20400
F1037       F  0.19556106  0.87969440  0.88131908    -0.20100
F1038       F  0.35082129  0.87149713  0.85855272    -0.20100
F1039       F  0.34064101  0.93642050  0.86500187    -0.20500
F1040       F  0.31945662  0.90673863  0.81757972    -0.23100
C1041       C  0.36987768  0.77529797  0.97073739    -0.06000
C1042       C  0.38992096  0.79542427  0.99782493     0.00000
C1043       C  0.39011329  0.77808782  0.52920274    -0.08600
C1044       C  0.38034516  0.73826227  0.52889523    -0.06000
C1045       C  0.36702409  0.71678555  0.50035263    -0.00100
C1046       C  0.35781335  0.73726283  0.97269936    -0.08500
C1047       C  0.33461546  0.71771125  0.94312666     0.61900
H1048       H  0.36259139  0.79039726  0.94801228     0.12500
H1049       H  0.38468326  0.72279079  0.55114274     0.12600
C1050       C  0.40568981  0.79913722  0.56097237     0.62100
F1051       F  0.32825389  0.74151054  0.91651217    -0.23100
F1052       F  0.30617663  0.71073462  0.94806965    -0.20400
F1053       F  0.34680236  0.68207746  0.93675959    -0.20100
F1054       F  0.38507923  0.82734659  0.56564985    -0.20100
F1055       F  0.43355817  0.81733164  0.56144248    -0.20500
F1056       F  0.41339415  0.77297932  0.58626776    -0.23100
C1057       C  0.02805050  0.02717850  0.52633628    -0.06000
C1058       C  0.04096938  0.02189547  0.50182671     0.00000
C1059       C  0.02180599  0.99653840  0.97328689    -0.08600
C1060       C  0.99462163  0.97566801  0.97387722    -0.06000
C1061       C  0.48508162  0.97950099  0.99934254    -0.00100
C1062       C  0.50122331  0.00581559  0.52538590    -0.08500
C1063       C  0.48823075  0.01408767  0.55216346     0.61900
H1064       H  0.03984296  0.04765194  0.54556655     0.12500
H1065       H  0.48535164  0.95561358  0.95506689     0.12600
C1066       C  0.03110204  0.99255917  0.94372926     0.62100
F1067       F  0.50949552  0.03580932  0.57666561    -0.23100
F1068       F  0.48244094  0.97864663  0.56461760    -0.20400
F1069       F  0.46026386  0.03579439  0.54093502    -0.20100
F1070       F  0.05851499  0.96988795  0.95028937    -0.20100
F1071       F  0.03595900  0.02983748  0.93365386    -0.20500
F1072       F  0.00757039  0.97422139  0.91878475    -0.23100
C1073       C  0.22828315  0.96983721  0.98012067    -0.06000
C1074       C  0.23441661  0.99789373  0.50821058     0.00000
C1075       C  0.26446632  0.01409347  0.52595381    -0.08600
C1076       C  0.28886772  0.01244576  0.51310197    -0.06000
C1077       C  0.28257578  0.98473197  0.98400146    -0.00100
C1078       C  0.25235543  0.96816714  0.96672099    -0.08500
C1079       C  0.24399938  0.94940370  0.93391487     0.61900
H1080       H  0.20462309  0.95903003  0.96637310     0.12500
H1081       H  0.31225895  0.02362808  0.52723107     0.12600
C1082       C  0.27121529  0.03476400  0.55789299     0.62100
F1083       F  0.21462220  0.96332901  0.91432720    -0.23100
F1084       F  0.24219360  0.90880107  0.93681860    -0.20400
F1085       F  0.26592561  0.95797156  0.91929585    -0.20100
F1086       F  0.24679385  0.02987439  0.56998111    -0.20100
F1087       F  0.27546111  0.07482230  0.55438481    -0.20500
F1088       F  0.29882224  0.01948568  0.57982154    -0.23100
C1089       C  0.40997678  0.99438113  0.60246076    -0.06000
C1090       C  0.38441683  0.96939606  0.58582924     0.00000
C1091       C  0.36283343  0.95745641  0.60150419    -0.08600
C1092       C  0.36652536  0.97361644  0.63190324    -0.06000
C1093       C  0.39053807  0.00098689  0.64689356    -0.00100
C1094       C  0.41331925  0.01063479  0.63248310    -0.08500
C1095       C  0.44118624  0.03818158  0.64863551     0.61900
H1096       H  0.42696847  0.00251889  0.59120912     0.12500
H1097       H  0.34963675  0.96661414  0.64360491     0.12600
C1098       C  0.33548440  0.92874501  0.58654562     0.62100
F1099       F  0.46252044  0.03969751  0.63231831    -0.23100
F1100       F  0.45758655  0.02473303  0.67901900    -0.20400
F1101       F  0.43026637  0.07634784  0.65028130    -0.20100
F1102       F  0.34738154  0.89282358  0.58030096    -0.20100
F1103       F  0.31452098  0.94425081  0.55860390    -0.20500
F1104       F  0.31828618  0.92137078  0.60646144    -0.23100
C1105       C  0.41811994  0.01615511  0.89108640    -0.06000
C1106       C  0.39070569  0.02161222  0.89948827     0.00000
C1107       C  0.36736842  0.04962866  0.88234365    -0.08600
C1108       C  0.36982960  0.06579729  0.85417845    -0.06000
C1109       C  0.39556586  0.05625956  0.84397917    -0.00100
C1110       C  0.42125026  0.03368392  0.86403643    -0.08500
C1111       C  0.45256083  0.02736171  0.85843614     0.61900
H1112       H  0.43721977  0.99737420  0.90547545     0.12500
H1113       H  0.35086448  0.08405703  0.83904463     0.12600
C1114       C  0.34002061  0.06217543  0.89324910     0.62100
F1115       F  0.47713235  0.04155397  0.88459403    -0.23100
F1116       F  0.45397445  0.04690890  0.83189375    -0.20400
F1117       F  0.45723528  0.98718463  0.85504867    -0.20100
F1118       F  0.32022743  0.08967632  0.87290848    -0.20100
F1119       F  0.35219860  0.07951282  0.92318142    -0.20500
F1120       F  0.32178890  0.02964230  0.89456787    -0.23100
Fe1121     Fe  0.90111892  0.90861303  0.45470171     1.65800
Fe1122     Fe  0.84860658  0.90024044  0.49243033     1.73200
Fe1123     Fe  0.88374099  0.98811266  0.49199748     1.54400
O1124       O  0.93153417  0.98742593  0.49652605    -0.81900
O1125       O  0.81339534  0.93880110  0.47134680    -0.80200
O1126       O  0.94577262  0.92576124  0.48772603    -0.84400
O1127       O  0.90214366  0.96076070  0.43106279    -0.79200
O1128       O  0.89351387  0.97630657  0.03835336    -0.81000
O1129       O  0.83243117  0.86900972  0.44917111    -0.83700
C1130       C  0.88813279  0.99429988  0.42712810     0.97000
C1131       C  0.95276630  0.96218253  0.49632036     1.04500
O1132       O  0.87855415  0.93226637  0.48041128    -1.12700
O1133       O  0.87985870  0.86246101  0.01135220    -0.75200
O1134       O  0.90118815  0.85094919  0.47380888    -0.78600
O1135       O  0.87261916  0.00582351  0.44486866    -0.79300
C1136       C  0.89279618  0.83689774  0.49629330     0.95900
O1137       O  0.85734982  0.89636128  0.41964331    -0.77300
O1138       O  0.85684430  0.93060414  0.03493841    -0.82500
C1139       C  0.81230001  0.97325436  0.48175818     0.98500
C1140       C  0.87732679  0.95565335  0.05111115     1.04500
O1141       O  0.83668055  0.99569427  0.49073421    -0.78100
C1142       C  0.83284177  0.87949501  0.42198444     1.02800
Fe1143     Fe  0.86725645  0.60001161  0.04085354     1.65800
Fe1144     Fe  0.90853375  0.60157925  0.99046291     1.73200
Fe1145     Fe  0.87280002  0.51784968  0.99810660     1.54400
O1146       O  0.87284890  0.49947548  0.04291891    -0.81900
O1147       O  0.87420155  0.59210339  0.44552735    -0.80200
O1148       O  0.87982420  0.55430307  0.07257694    -0.84400
O1149       O  0.82077174  0.57285592  0.02042048    -0.79200
O1150       O  0.92081375  0.50427574  0.01094436    -0.81000
O1151       O  0.89044189  0.65482031  0.49384519    -0.83700
C1152       C  0.80914023  0.54409233  0.00038664     0.97000
C1153       C  0.87567877  0.51727930  0.06900586     1.04500
O1154       O  0.88198880  0.57340877  0.00974597    -1.12700
O1155       O  0.94277649  0.60785787  0.03422660    -0.75200
O1156       O  0.91404613  0.62389233  0.06481523    -0.78600
O1157       O  0.82257538  0.52742661  0.48470832    -0.79300
C1158       C  0.94112473  0.62011501  0.06050731     0.95900
O1159       O  0.85307464  0.65214679  0.01416286    -0.77300
O1160       O  0.92951524  0.55040069  0.48309488    -0.82500
C1161       C  0.86776472  0.55744841  0.43364391     0.98500
C1162       C  0.93783640  0.51984733  0.99662906     1.04500
O1163       O  0.86800496  0.52710272  0.45073843    -0.78100
C1164       C  0.87031235  0.67216310  0.00227451     1.02800
Fe1165     Fe  0.63789399  0.91465826  0.30121279     1.65800
Fe1166     Fe  0.67523030  0.90531959  0.24747926     1.73200
Fe1167     Fe  0.64402527  0.99293748  0.25605411     1.54400
O1168       O  0.59639287  0.98723833  0.24610882    -0.81900
O1169       O  0.69876663  0.95162214  0.23781551    -0.80200
O1170       O  0.59273044  0.94471978  0.28303863    -0.84400
O1171       O  0.65473395  0.96122692  0.33212601    -0.79200
O1172       O  0.63742830  0.97911882  0.20850791    -0.81000
O1173       O  0.71092853  0.89739271  0.29071706    -0.83700
C1174       C  0.65268423  0.99832996  0.32793608     0.97000
C1175       C  0.58131463  0.97297614  0.26284189     1.04500
O1176       O  0.65150681  0.93739776  0.26815481    -1.12700
O1177       O  0.65658462  0.85300166  0.25319546    -0.75200
O1178       O  0.61987758  0.86246937  0.27540657    -0.78600
O1179       O  0.64840718  0.01419612  0.30115670    -0.79300
C1180       C  0.63531972  0.83981518  0.26287064     0.95900
O1181       O  0.68326460  0.88737881  0.32318542    -0.77300
O1182       O  0.64077279  0.91326085  0.20359783    -0.82500
C1183       C  0.70757351  0.98415429  0.25192152     0.98500
C1184       C  0.63438077  0.94767833  0.19150909     1.04500
O1185       O  0.69176719  0.00260062  0.26627309    -0.78100
C1186       C  0.70977962  0.88773368  0.31784452     1.02800
Fe1187     Fe  0.63165563  0.60044491  0.19819034     1.65800
Fe1188     Fe  0.58306910  0.59906162  0.24178514     1.73200
Fe1189     Fe  0.62480610  0.51705280  0.23745676     1.54400
O1190       O  0.63111551  0.50111889  0.19492843    -0.81900
O1191       O  0.60959952  0.58819553  0.28849425    -0.82600
O1192       O  0.62113126  0.55535832  0.16512420    -0.84400
O1193       O  0.67757285  0.57301420  0.22057203    -0.79200
O1194       O  0.57780175  0.49984444  0.21865409    -0.81000
O1195       O  0.60242755  0.65389304  0.24480554    -0.83700
C1196       C  0.68892469  0.54530715  0.24125603     0.97000
C1197       C  0.62792223  0.51882522  0.16905950     1.04500
O1198       O  0.61377678  0.57252781  0.22606292    -1.12700
O1199       O  0.55343451  0.61016039  0.19658938    -0.75200
O1200       O  0.58658742  0.62606336  0.17106774    -0.78600
O1201       O  0.67236299  0.53022019  0.25636072    -0.79300
C1202       C  0.55828397  0.62341408  0.17229866     0.95900
O1203       O  0.64356426  0.65068829  0.22782492    -0.77300
O1204       O  0.55838624  0.54888843  0.24024355    -0.82500
C1205       C  0.61609634  0.55326221  0.29914884     0.98500
C1206       C  0.55613550  0.51506900  0.22741964     1.04500
O1207       O  0.62051854  0.52476812  0.28214507    -0.78100
C1208       C  0.62569375  0.66996818  0.23982291     1.02800
Fe1209     Fe  0.86584573  0.40928882  0.29183961     1.65800
Fe1210     Fe  0.91518528  0.40380291  0.25029375     1.73200
Fe1211     Fe  0.87641973  0.48925869  0.25074189     1.54400
O1212       O  0.83005135  0.48564843  0.24896358    -0.81900
O1213       O  0.94837330  0.44564527  0.27040222    -0.80200
O1214       O  0.81840562  0.42572208  0.26245858    -0.84400
O1215       O  0.86533019  0.46122813  0.31597907    -0.79200
O1216       O  0.86320561  0.47288162  0.20304327    -0.81000
O1217       O  0.93404591  0.37206571  0.29207658    -0.83700
C1218       C  0.87562031  0.49650815  0.31740650     0.97000
C1219       C  0.81008696  0.46176872  0.25335289     1.04500
O1220       O  0.88482321  0.43400913  0.26361913    -1.12700
O1221       O  0.88255848  0.36110049  0.23082484    -0.75200
O1222       O  0.86624667  0.35161192  0.27162612    -0.78600
O1223       O  0.88801515  0.50961176  0.29759583    -0.79300
C1224       C  0.87467821  0.33789792  0.24875746     0.95900
O1225       O  0.91190851  0.39792587  0.32482127    -0.77300
O1226       O  0.90209898  0.43033565  0.20608590    -0.82500
C1227       C  0.94742823  0.47948602  0.25833902     0.98500
C1228       C  0.88047306  0.45393881  0.19009679     1.04500
O1229       O  0.92209144  0.50015855  0.25007096    -0.78100
C1230       C  0.93570065  0.38127389  0.32003464     1.02800
Fe1231     Fe  0.89815696  0.09667998  0.20449719     1.65800
Fe1232     Fe  0.85574695  0.10057629  0.25414619     1.73200
Fe1233     Fe  0.89244308  0.01610058  0.24733058     1.54400
O1234       O  0.89295757  0.99678314  0.20256750    -0.81900
O1235       O  0.88724746  0.09250142  0.29950635    -0.80200
O1236       O  0.88479856  0.05072603  0.17255577    -0.84400
O1237       O  0.94417537  0.06863946  0.22480470    -0.79200
O1238       O  0.84504564  0.00195991  0.23326586    -0.81000
O1239       O  0.87392894  0.15489020  0.25168511    -0.83700
C1240       C  0.95561337  0.04100199  0.24560982     0.97000
C1241       C  0.88879893  0.01370899  0.17608504     1.04500
O1242       O  0.88281512  0.07143090  0.23545193    -1.12700
O1243       O  0.82241115  0.10816485  0.20980141    -0.75200
O1244       O  0.85220448  0.12160707  0.18009322    -0.78600
O1245       O  0.93989554  0.02722600  0.26183884    -0.79300
C1246       C  0.82482117  0.11865112  0.18346103     0.95900
O1247       O  0.91277526  0.14864565  0.23161868    -0.77300
O1248       O  0.83235738  0.05170710  0.25960482    -0.82500
C1249       C  0.89367115  0.05796939  0.31128513     0.98500
C1250       C  0.82689417  0.01824974  0.24611667     1.04500
O1251       O  0.89384737  0.02734151  0.29419524    -0.78100
C1252       C  0.89619206  0.16944799  0.24414872     1.02800
Fe1253     Fe  0.62991860  0.09442899  0.05021895     1.65800
Fe1254     Fe  0.67874352  0.09771355  0.00669379     1.73200
Fe1255     Fe  0.63791378  0.01376560  0.00660499     1.54400
O1256       O  0.63382460  0.99428571  0.04913039    -0.81900
O1257       O  0.65246171  0.09015516  0.45823122    -0.80200
O1258       O  0.64030412  0.04733312  0.08079788    -0.84400
O1259       O  0.58442583  0.06793630  0.02692185    -0.79200
O1260       O  0.68513372  0.99661356  0.02291744    -0.81000
O1261       O  0.66193554  0.15062696  0.50782509    -0.83700
C1262       C  0.57322113  0.04092285  0.00541570     0.97000
C1263       C  0.63636665  0.01038141  0.07568659     1.04500
O1264       O  0.64828813  0.06883235  0.02093680    -1.12700
O1265       O  0.70785717  0.10700266  0.05259666    -0.75200
O1266       O  0.67457688  0.11907827  0.07894132    -0.78600
O1267       O  0.58866261  0.03095279  0.48686388    -0.79300
C1268       C  0.70290887  0.11728698  0.07785057     0.95900
O1269       O  0.61737252  0.14645449  0.02309062    -0.77300
O1270       O  0.70331906  0.04533678  0.50224178    -0.82500
C1271       C  0.64404376  0.05696475  0.44423571     0.98500
C1272       C  0.70695159  0.01388859  0.01595326     1.04500
O1273       O  0.63877815  0.02651733  0.45848367    -0.78100
C1274       C  0.63475275  0.16656634  0.01138991     1.02800
Fe1275     Fe  0.62873798  0.40428968  0.44687239     1.65800
Fe1276     Fe  0.58849628  0.40111107  0.49842940     1.73200
Fe1277     Fe  0.62066925  0.48676944  0.48795675     1.54400
O1278       O  0.66895252  0.47965172  0.50042001    -0.81900
O1279       O  0.56395458  0.44891399  0.50455283    -0.80200
O1280       O  0.67470450  0.43249785  0.46705478    -0.84400
O1281       O  0.61488140  0.44907213  0.41426850    -0.79200
O1282       O  0.62910723  0.47852178  0.03590161    -0.81000
O1283       O  0.55431549  0.39138138  0.45510097    -0.83700
C1284       C  0.61694188  0.48638678  0.41703845     0.97000
C1285       C  0.68578286  0.46189006  0.48651784     1.04500
O1286       O  0.61343161  0.43051203  0.47780750    -1.12700
O1287       O  0.60805568  0.34928032  0.99544417    -0.75200
O1288       O  0.64497946  0.35365432  0.47454722    -0.78600
O1289       O  0.61892698  0.50451640  0.44269869    -0.79300
C1290       C  0.62930247  0.33281390  0.48754898     0.95900
O1291       O  0.58240641  0.37863980  0.42331612    -0.77300
O1292       O  0.62571525  0.41347325  0.04293253    -0.82500
C1293       C  0.55601979  0.48142619  0.49051960     0.98500
C1294       C  0.63096355  0.44865792  0.05390260     1.04500
O1295       O  0.57230694  0.49799533  0.47586945    -0.78100
C1296       C  0.55558602  0.38051104  0.42836667     1.02800
C1297       C  0.60763812  0.26564587  0.47610907    -0.06000
C1298       C  0.63412086  0.28974131  0.49198433     0.00000
C1299       C  0.65764261  0.27434071  0.01663967    -0.08600
C1300       C  0.65613095  0.23389850  0.02359094    -0.06000
C1301       C  0.63043032  0.20970285  0.00585170    -0.00100
C1302       C  0.60701539  0.22507685  0.48300827    -0.08500
C1303       C  0.57846234  0.19979851  0.46475716     0.61900
H1304       H  0.58703449  0.27925104  0.45861051     0.12500
H1305       H  0.67537731  0.22052838  0.04284040     0.12600
C1306       C  0.68505459  0.29981635  0.03710521     0.62100
F1307       F  0.55589854  0.22117748  0.44118419    -0.23100
F1308       F  0.56418436  0.18562168  0.48551564    -0.20400
F1309       F  0.58819338  0.16807617  0.45040183    -0.20100
F1310       F  0.67343117  0.33074115  0.05059364    -0.20100
F1311       F  0.70123331  0.31517629  0.01842524    -0.20500
F1312       F  0.70648246  0.27829555  0.06152031    -0.23100
C1313       C  0.76497147  0.12240133  0.16272583    -0.06000
C1314       C  0.79377513  0.12601925  0.15621332     0.00000
C1315       C  0.79131897  0.13346751  0.12415552    -0.08600
C1316       C  0.76072266  0.13455057  0.10031063    -0.06000
C1317       C  0.73236157  0.12612269  0.10637803    -0.00100
C1318       C  0.73451084  0.12160846  0.13860312    -0.08500
C1319       C  0.70527058  0.11429823  0.14781416     0.61900
H1320       H  0.76639772  0.11807370  0.18713001     0.12500
H1321       H  0.75888768  0.14010083  0.07592968     0.12600
C1322       C  0.82046375  0.13871827  0.11434608     0.62100
F1323       F  0.71279963  0.11187406  0.18052129    -0.23100
F1324       F  0.69115128  0.07888898  0.13453879    -0.20400
F1325       F  0.68374445  0.14517324  0.13713345    -0.20100
F1326       F  0.83820929  0.10400561  0.11990736    -0.20100
F1327       F  0.83888959  0.16972232  0.13140508    -0.20500
F1328       F  0.81228437  0.14739480  0.08227121    -0.23100
C1329       C  0.52404024  0.36266460  0.37129697    -0.06000
C1330       C  0.52411301  0.37186765  0.40207082     0.00000
C1331       C  0.49375741  0.37439752  0.40644356    -0.08600
C1332       C  0.96634024  0.37713854  0.37857525    -0.06000
C1333       C  0.96650465  0.37362069  0.34731828    -0.00100
C1334       C  0.49543647  0.35938448  0.34467481    -0.08500
C1335       C  0.49754796  0.34365345  0.31343417     0.61900
H1336       H  0.54678152  0.35822872  0.36807980     0.12500
H1337       H  0.94360052  0.38120507  0.38192106     0.12600
C1338       C  0.49001017  0.37403654  0.43911287     0.62100
F1339       F  0.52799264  0.33048847  0.31682642    -0.23100
F1340       F  0.98973755  0.38236661  0.28964243    -0.20400
F1341       F  0.47710885  0.31176109  0.30287355    -0.20100
F1342       F  0.49927937  0.40986334  0.45470495    -0.20100
F1343       F  0.50812098  0.34357412  0.45721778    -0.20500
F1344       F  0.96027682  0.36394346  0.43597533    -0.23100
C1345       C  0.89104343  0.23494620  0.21916059    -0.06000
C1346       C  0.89912700  0.21308704  0.24732432     0.00000
C1347       C  0.90048194  0.23254701  0.27594783    -0.08600
C1348       C  0.89078729  0.27254805  0.27490135    -0.06000
C1349       C  0.88100151  0.29437365  0.24637806    -0.00100
C1350       C  0.88264370  0.27551223  0.21814925    -0.08500
C1351       C  0.87606675  0.29752396  0.18698607     0.61900
H1352       H  0.89013387  0.21938851  0.19753133     0.12500
H1353       H  0.89134727  0.28719875  0.29677572     0.12600
C1354       C  0.91210061  0.21090953  0.30755829     0.62100
F1355       F  0.87368029  0.27197375  0.16181113    -0.23100
F1356       F  0.90094565  0.32323456  0.18996316    -0.20400
F1357       F  0.84771765  0.31849868  0.17938497    -0.20100
F1358       F  0.93840755  0.18770587  0.30948941    -0.20100
F1359       F  0.88816494  0.18693403  0.31028462    -0.20500
F1360       F  0.92105584  0.23727972  0.33302898    -0.23100
C1361       C  0.72416326  0.48456754  0.25327785    -0.06000
C1362       C  0.72084429  0.52559773  0.24569402     0.00000
C1363       C  0.74681241  0.54464269  0.24061824    -0.08600
C1364       C  0.77398940  0.52186510  0.24184258    -0.06000
C1365       C  0.77761818  0.48063720  0.24937885    -0.00100
C1366       C  0.75197123  0.46198040  0.25567367    -0.08500
C1367       C  0.75363840  0.41861181  0.26499931     0.61900
H1368       H  0.70431866  0.46981269  0.25704405     0.12500
H1369       H  0.79311646  0.53715217  0.23719791     0.12600
C1370       C  0.74670995  0.58919854  0.23521902     0.62100
F1371       F  0.72584722  0.40609437  0.26916945    -0.23100
F1372       F  0.77847988  0.41291259  0.29344023    -0.20400
F1373       F  0.75836993  0.39528245  0.24136752    -0.20100
F1374       F  0.73819604  0.60907405  0.25834637    -0.20100
F1375       F  0.72538153  0.59865603  0.20545787    -0.20500
F1376       F  0.77646117  0.60281305  0.23690399    -0.23100
C1377       C  0.49927857  0.51617240  0.21230766    -0.06000
C1378       C  0.52734314  0.49401393  0.22545406     0.00000
C1379       C  0.52908535  0.46415924  0.24773196    -0.08600
C1380       C  0.50364686  0.46036196  0.25889432    -0.06000
C1381       C  0.97549285  0.49109962  0.25015481    -0.00100
C1382       C  0.97349349  0.51554308  0.22375459    -0.08500
C1383       C  0.94593802  0.54420087  0.20894812     0.61900
H1384       H  0.49911615  0.53917553  0.19542823     0.12500
H1385       H  0.50560736  0.43883435  0.27725339     0.12600
C1386       C  0.55871322  0.43862467  0.26155661     0.62100
F1387       F  0.91813641  0.52373134  0.19406798    -0.23100
F1388       F  0.94204710  0.56865805  0.23240623    -0.20400
F1389       F  0.95112670  0.56815871  0.18622900    -0.20100
F1390       F  0.56814809  0.42371005  0.23722548    -0.20100
F1391       F  0.55325627  0.40676194  0.27835319    -0.20500
F1392       F  0.58309330  0.46106884  0.28206121    -0.23100
C1393       C  0.64385816  0.52102896  0.34992328    -0.06000
C1394       C  0.61776320  0.54377142  0.33189505     0.00000
C1395       C  0.59215192  0.55087754  0.34340673    -0.08600
C1396       C  0.59330358  0.53327756  0.37235447    -0.06000
C1397       C  0.61878135  0.50874855  0.38939631    -0.00100
C1398       C  0.64496667  0.50348882  0.37854717    -0.08500
C1399       C  0.67460264  0.48059610  0.39759871     0.61900
H1400       H  0.66314163  0.51617640  0.34076439     0.12500
H1401       H  0.57365339  0.53692367  0.38114089     0.12600
C1402       C  0.56288959  0.57467622  0.32447314     0.62100
F1403       F  0.69786557  0.48106479  0.38357909    -0.23100
F1404       F  0.66720522  0.44141372  0.40061344    -0.20400
F1405       F  0.68721280  0.49810379  0.42721820    -0.20100
F1406       F  0.54797314  0.55647491  0.29536139    -0.20100
F1407       F  0.57170505  0.61274210  0.31976623    -0.20500
F1408       F  0.54095514  0.57757710  0.34004171    -0.23100
C1409       C  0.65658466  0.48881738  0.10153796    -0.06000
C1410       C  0.63589462  0.45744211  0.08769629     0.00000
C1411       C  0.61551594  0.44250281  0.10340544    -0.08600
C1412       C  0.61448775  0.46245821  0.13089244    -0.06000
C1413       C  0.63286118  0.49641426  0.14261729    -0.00100
C1414       C  0.65556822  0.50858262  0.12885459    -0.08500
C1415       C  0.67937394  0.54141402  0.14339253     0.61900
H1416       H  0.67244602  0.49920042  0.08961066     0.12500
H1417       H  0.59813605  0.45295736  0.14253417     0.12600
C1418       C  0.59380219  0.40712384  0.09062895     0.62100
F1419       F  0.70136965  0.54546036  0.12805372    -0.23100
F1420       F  0.69595981  0.53225792  0.17475695    -0.20400
F1421       F  0.66391298  0.57743897  0.14173728    -0.20100
F1422       F  0.61183569  0.37445421  0.08836431    -0.20100
F1423       F  0.57193947  0.41558369  0.06094395    -0.20500
F1424       F  0.57693494  0.39721419  0.11033441    -0.23100
C1425       C  0.60142243  0.73537744  0.24347886    -0.06000
C1426       C  0.62957113  0.71330115  0.24702419     0.00000
C1427       C  0.65925981  0.73299523  0.25763920    -0.08600
C1428       C  0.65961940  0.77372812  0.26484898    -0.06000
C1429       C  0.63142487  0.79602431  0.26016977    -0.00100
C1430       C  0.60175295  0.77653338  0.24944034    -0.08500
C1431       C  0.57066731  0.79911052  0.24305482     0.61900
H1432       H  0.57870467  0.72021764  0.23502072     0.12500
H1433       H  0.68228060  0.78905621  0.27327295     0.12600
C1434       C  0.69037097  0.71169779  0.26107730     0.62100
F1435       F  0.54436439  0.77464812  0.23087826    -0.23100
F1436       F  0.56829328  0.82881731  0.22115190    -0.20400
F1437       F  0.56976443  0.81579741  0.27112261    -0.20100
F1438       F  0.69021973  0.69940387  0.23139898    -0.20100
F1439       F  0.69403308  0.67913016  0.28067532    -0.20500
F1440       F  0.71659198  0.73606338  0.27419674    -0.23100
C1441       C  0.62066428  0.02563000  0.35775805    -0.06000
C1442       C  0.65080628  0.02277927  0.35465279     0.00000
C1443       C  0.67795999  0.03687709  0.37932459    -0.08600
C1444       C  0.67417655  0.05116275  0.40758624    -0.06000
C1445       C  0.64413804  0.05171530  0.41144140    -0.00100
C1446       C  0.61671946  0.04040147  0.38560820    -0.08500
C1447       C  0.58302296  0.04249164  0.38621650     0.61900
H1448       H  0.59996572  0.01461774  0.33858541     0.12500
H1449       H  0.69493522  0.06009591  0.42753716     0.12600
C1450       C  0.71048006  0.03667171  0.37562060     0.62100
F1451       F  0.56388997  0.06299376  0.35975269    -0.23100
F1452       F  0.58124288  0.06176828  0.41298548    -0.20400
F1453       F  0.57124990  0.00440738  0.38511621    -0.20100
F1454       F  0.71001676  0.06264833  0.35169085    -0.20100
F1455       F  0.71788973  0.99906513  0.36755962    -0.20500
F1456       F  0.73430972  0.04840076  0.40342353    -0.23100
C1457       C  0.65058498  0.93908463  0.14464162    -0.06000
C1458       C  0.62742803  0.95295909  0.15709323     0.00000
C1459       C  0.60416353  0.98052456  0.13952643    -0.08600
C1460       C  0.60732506  0.99729885  0.11218548    -0.06000
C1461       C  0.63226297  0.98629950  0.10138510    -0.00100
C1462       C  0.65351880  0.95560507  0.11689137    -0.08500
C1463       C  0.68048634  0.94270337  0.10557990     0.61900
H1464       H  0.66824476  0.91805671  0.15844153     0.12500
H1465       H  0.59060471  0.02008637  0.09958657     0.12600
C1466       C  0.57640214  0.99411015  0.14935942     0.62100
F1467       F  0.69959374  0.91396528  0.12509683    -0.23100
F1468       F  0.69940012  0.97499847  0.10538522    -0.20400
F1469       F  0.66806700  0.92715002  0.07506943    -0.20100
F1470       F  0.58085762  0.03330243  0.15934124    -0.20100
F1471       F  0.57283998  0.97136507  0.17354090    -0.20500
F1472       F  0.54842330  0.99114768  0.12351239    -0.23100
C1473       C  0.52433340  0.96663050  0.25767620    -0.06000
C1474       C  0.54944825  0.99140529  0.25842166     0.00000
C1475       C  0.54354982  0.03329517  0.25434497    -0.08600
C1476       C  0.51249250  0.04818599  0.24900957    -0.06000
C1477       C  0.98760688  0.02192654  0.25040789    -0.00100
C1478       C  0.99484979  0.98140856  0.26036237    -0.08500
C1479       C  0.97104840  0.95394988  0.26734839     0.61900
H1480       H  0.52923744  0.93511061  0.26079045     0.12500
H1481       H  0.50764280  0.07970377  0.24579599     0.12600
C1482       C  0.56986556  0.06300784  0.25684061     0.62100
F1483       F  0.98224545  0.91530186  0.27305537    -0.23100
F1484       F  0.94301102  0.95277128  0.24147242    -0.20400
F1485       F  0.96500321  0.96696406  0.29415493    -0.20100
F1486       F  0.58040309  0.05863174  0.23129600    -0.20100
F1487       F  0.59490314  0.05737034  0.28500575    -0.20500
F1488       F  0.55956668  0.10188517  0.25685107    -0.23100
C1489       C  0.79455961  0.99841720  0.27633708    -0.06000
C1490       C  0.79790300  0.00006641  0.24625039     0.00000
C1491       C  0.77106691  0.99952047  0.21814542    -0.08600
C1492       C  0.74102474  0.99852146  0.22114830    -0.06000
C1493       C  0.73766189  0.99832135  0.25126572    -0.00100
C1494       C  0.76452229  0.99862195  0.27936711    -0.08500
C1495       C  0.76144190  0.00047581  0.31216685     0.61900
H1496       H  0.81573015  0.00050082  0.29742570     0.12500
H1497       H  0.71982237  0.99663240  0.20003038     0.12600
C1498       C  0.77430886  0.00059209  0.18542295     0.62100
F1499       F  0.74302355  0.96957199  0.31611882    -0.23100
F1500       F  0.74720818  0.03602421  0.31544453    -0.20400
F1501       F  0.79083550  0.99814404  0.33619470    -0.20100
F1502       F  0.79191135  0.96811780  0.18182227    -0.20100
F1503       F  0.78958344  0.03492439  0.18205409    -0.20500
F1504       F  0.74492196  0.99953768  0.16126501    -0.23100
C1505       C  0.97167960  0.63639861  0.11791430    -0.06000
C1506       C  0.97228071  0.62832882  0.08720665     0.00000
C1507       C  0.50253697  0.62824746  0.08585459    -0.08600
C1508       C  0.53034086  0.62794939  0.11338804    -0.06000
C1509       C  0.52915898  0.63328406  0.14405692    -0.00100
C1510       C  0.49919232  0.64344808  0.14697727    -0.08500
C1511       C  0.99749717  0.65210724  0.17651679     0.61900
H1512       H  0.94883330  0.64032396  0.12102794     0.12500
H1513       H  0.55332367  0.62175283  0.11118674     0.12600
C1514       C  0.50700575  0.62532779  0.05360093     0.62100
F1515       F  0.96923656  0.67235787  0.17216302    -0.23100
F1516       F  0.52123061  0.68366578  0.19344767    -0.20400
F1517       F  0.49737549  0.62616470  0.19793516    -0.20100
F1518       F  0.49033179  0.65559639  0.03406034    -0.20100
F1519       F  0.99860365  0.59035233  0.03574356    -0.20500
F1520       F  0.53872355  0.62902699  0.05628709    -0.23100
C1521       C  0.85127270  0.48658079  0.13885956    -0.06000
C1522       C  0.87697819  0.46234798  0.15610396     0.00000
C1523       C  0.90004425  0.45135403  0.14166606    -0.08600
C1524       C  0.89757659  0.46801105  0.11199969    -0.06000
C1525       C  0.87346568  0.49502782  0.09662344    -0.00100
C1526       C  0.84918070  0.50338077  0.10960159    -0.08500
C1527       C  0.82062473  0.52933478  0.09241883     0.61900
H1528       H  0.83320820  0.49377304  0.14914561     0.12500
H1529       H  0.91552021  0.46181515  0.10130554     0.12600
C1530       C  0.92783641  0.42338101  0.15724359     0.62100
F1531       F  0.83023019  0.56759520  0.08955695    -0.23100
F1532       F  0.80520089  0.51337850  0.06264728    -0.20400
F1533       F  0.79884147  0.53137504  0.10821838    -0.20100
F1534       F  0.91642140  0.38754997  0.16352022    -0.20100
F1535       F  0.94819137  0.43992216  0.18519669    -0.20500
F1536       F  0.94558812  0.41554186  0.13780293    -0.23100
C1537       C  0.89071067  0.56245093  0.39080873    -0.06000
C1538       C  0.86495459  0.55070881  0.40008596     0.00000
C1539       C  0.84009128  0.52790209  0.37896846    -0.08600
C1540       C  0.84342437  0.51423998  0.35052899    -0.06000
C1541       C  0.87104362  0.52179454  0.34295472    -0.00100
C1542       C  0.89417531  0.54842105  0.36228789    -0.08500
C1543       C  0.92259882  0.56101964  0.35342502     0.61900
H1544       H  0.90919580  0.58067556  0.40710517     0.12500
H1545       H  0.82511630  0.49528149  0.33476918     0.12600
C1546       C  0.81052145  0.51729244  0.38668810     0.62100
F1547       F  0.94328693  0.58495992  0.37669342    -0.23100
F1548       F  0.91197241  0.58217645  0.32531241    -0.20400
F1549       F  0.93943862  0.52809510  0.34927842    -0.20100
F1550       F  0.79804840  0.55109997  0.39584030    -0.20100
F1551       F  0.81816828  0.49001033  0.41112977    -0.20500
F1552       F  0.78703990  0.50085751  0.36060393    -0.23100
C1553       C  0.72144398  0.52170874  0.49946541    -0.06000
C1554       C  0.71811818  0.48061451  0.49153107     0.00000
C1555       C  0.74433550  0.46115111  0.48667371    -0.08600
C1556       C  0.77206475  0.48341633  0.48936638    -0.06000
C1557       C  0.77757661  0.52452226  0.99656666    -0.00100
C1558       C  0.74998151  0.54476634  0.99715325    -0.08500
C1559       C  0.74924843  0.58966597  0.99974851     0.61900
H1560       H  0.70150906  0.53706642  0.50291194     0.12500
H1561       H  0.79206137  0.46815214  0.48594282     0.12600
C1562       C  0.74366202  0.41695422  0.47946943     0.62100
F1563       F  0.72090683  0.60189383  0.51016213    -0.23100
F1564       F  0.75832619  0.60920828  0.48778263    -0.20400
F1565       F  0.77002969  0.60191377  0.02911607    -0.20100
F1566       F  0.72206188  0.40929527  0.44937330    -0.20100
F1567       F  0.73904086  0.39900194  0.01164145    -0.20500
F1568       F  0.77317304  0.40289317  0.48035049    -0.23100
C1569       C  0.52484517  0.49543787  0.02276353    -0.06000
C1570       C  0.52646580  0.49769273  0.49227980     0.00000
C1571       C  0.49933753  0.50101601  0.46465968    -0.08600
C1572       C  0.96863053  0.50004667  0.46538003    -0.06000
C1573       C  0.96714420  0.50212518  0.99545499    -0.00100
C1574       C  0.99374595  0.49756464  0.02345549    -0.08500
C1575       C  0.99027602  0.49500099  0.05605002     0.61900
H1576       H  0.54470185  0.48707334  0.04371107     0.12500
H1577       H  0.94738255  0.50319180  0.44444067     0.12600
C1578       C  0.50196265  0.50340169  0.43172973     0.62100
F1579       F  0.51703500  0.47779390  0.07941479    -0.23100
F1580       F  0.97172048  0.46247842  0.05661433    -0.20400
F1581       F  0.97587551  0.52894728  0.06240621    -0.20100
F1582       F  0.51704769  0.47005942  0.42539395    -0.20100
F1583       F  0.51930199  0.53670224  0.43012079    -0.20500
F1584       F  0.97187764  0.50005516  0.40544762    -0.23100
C1585       C  0.77517013  0.86021792  0.39793967    -0.06000
C1586       C  0.80294275  0.87411627  0.39308699     0.00000
C1587       C  0.80011960  0.88597174  0.36170809    -0.08600
C1588       C  0.76952473  0.88770091  0.33801872    -0.06000
C1589       C  0.74122347  0.87852731  0.34394146    -0.00100
C1590       C  0.74441431  0.86244801  0.37425881    -0.08500
C1591       C  0.71587694  0.84767339  0.38211716     0.61900
H1592       H  0.77740807  0.84917415  0.42126298     0.12500
H1593       H  0.76758042  0.89822856  0.31463565     0.12600
C1594       C  0.82881878  0.89737552  0.35266488     0.62100
F1595       F  0.72500119  0.82882479  0.41133408    -0.23100
F1596       F  0.69884498  0.82063989  0.35916041    -0.20400
F1597       F  0.69638344  0.87924478  0.38338000    -0.20100
F1598       F  0.85203035  0.86817468  0.36244970    -0.20100
F1599       F  0.84098434  0.93331655  0.36668025    -0.20500
F1600       F  0.82097835  0.90141588  0.32003007    -0.23100
C1601       C  0.87586670  0.77190091  0.47022931    -0.06000
C1602       C  0.88870301  0.79334867  0.49897410     0.00000
C1603       C  0.88978486  0.77799897  0.02734546    -0.08600
C1604       C  0.88023101  0.73812914  0.02740109    -0.06000
C1605       C  0.86828795  0.71578415  0.99915449    -0.00100
C1606       C  0.86493781  0.73263271  0.46944828    -0.08500
C1607       C  0.85166860  0.71061564  0.43782544     0.61900
H1608       H  0.87385061  0.78640203  0.44806072     0.12500
H1609       H  0.88386079  0.72331130  0.04979968     0.12600
C1610       C  0.90488448  0.79957885  0.05895558     0.62100
F1611       F  0.84438012  0.73630857  0.41226643    -0.23100
F1612       F  0.82399552  0.69093714  0.43612774    -0.20400
F1613       F  0.87379415  0.68332898  0.43493515    -0.20100
F1614       F  0.88310784  0.82568530  0.06410259    -0.20100
F1615       F  0.93150941  0.82032468  0.05882635    -0.20500
F1616       F  0.91459517  0.77337501  0.08423449    -0.23100
C1617       C  0.52804962  0.02671120  0.02508311    -0.06000
C1618       C  0.54092188  0.02249912  0.00049746     0.00000
C1619       C  0.52731728  0.99172337  0.47659554    -0.08600
C1620       C  0.50019779  0.97073821  0.47742186    -0.06000
C1621       C  0.98546857  0.97866122  0.50205352    -0.00100
C1622       C  0.00009388  0.00320726  0.02581422    -0.08500
C1623       C  0.98933145  0.00709537  0.05448419     0.61900
H1624       H  0.54019152  0.04603046  0.04503530     0.12500
H1625       H  0.98629303  0.95211211  0.45896661     0.12600
C1626       C  0.53914743  0.98291050  0.44907590     0.62100
F1627       F  0.01250685  0.02460049  0.08021325    -0.23100
F1628       F  0.98292641  0.96993718  0.06376609    -0.20400
F1629       F  0.96212632  0.03031125  0.04687405    -0.20100
F1630       F  0.56905476  0.96547634  0.46028680    -0.20100
F1631       F  0.54023814  0.01775559  0.43337517    -0.20500
F1632       F  0.51932934  0.95694882  0.42695360    -0.23100
C1633       C  0.72814212  0.96994476  0.48193609    -0.06000
C1634       C  0.73505953  0.99312021  0.01514994     0.00000
C1635       C  0.76487153  0.01147872  0.03014961    -0.08600
C1636       C  0.78759261  0.00999637  0.01518052    -0.06000
C1637       C  0.78330409  0.98377942  0.48843407    -0.00100
C1638       C  0.75301281  0.96859231  0.46962957    -0.08500
C1639       C  0.74643458  0.95029233  0.43688644     0.61900
H1640       H  0.70443418  0.96032400  0.46721032     0.12500
H1641       H  0.81070495  0.02344211  0.02718700     0.12600
C1642       C  0.77283358  0.03474778  0.06107751     0.62100
F1643       F  0.71477247  0.95529632  0.41801391    -0.23100
F1644       F  0.75289206  0.91016160  0.44033590    -0.20400
F1645       F  0.76498815  0.96748422  0.42129079    -0.20100
F1646       F  0.74977908  0.03070472  0.07509413    -0.20100
F1647       F  0.77572385  0.07441200  0.05500604    -0.20500
F1648       F  0.80153587  0.02147891  0.08250565    -0.23100
C1649       C  0.90951233  0.98333804  0.10396359    -0.06000
C1650       C  0.88202446  0.96247993  0.08570749     0.00000
C1651       C  0.85963101  0.95137869  0.10064227    -0.08600
C1652       C  0.86352096  0.96673785  0.13133707    -0.06000
C1653       C  0.88952293  0.99069654  0.14792132    -0.00100
C1654       C  0.91397423  0.99687794  0.13500155    -0.08500
C1655       C  0.94507714  0.01697600  0.15425191     0.61900
H1656       H  0.92747970  0.98978298  0.09348800     0.12500
H1657       H  0.84557631  0.96159234  0.14211329     0.12600
C1658       C  0.83156606  0.92404072  0.08475944     0.62100
F1659       F  0.96670858  0.01706985  0.13824315    -0.23100
F1660       F  0.95880714  0.99663702  0.18242599    -0.20400
F1661       F  0.93959365  0.05592474  0.16087641    -0.20100
F1662       F  0.84255447  0.88820318  0.07716108    -0.20100
F1663       F  0.81095070  0.94126067  0.05746095    -0.20500
F1664       F  0.81435544  0.91601052  0.10454263    -0.23100
C1665       C  0.91915087  0.01277196  0.39297272    -0.06000
C1666       C  0.89167868  0.01951433  0.40118128     0.00000
C1667       C  0.86864512  0.04733234  0.38319572    -0.08600
C1668       C  0.87166434  0.06245391  0.35492366    -0.06000
C1669       C  0.89742368  0.05174547  0.34508161    -0.00100
C1670       C  0.92266456  0.02896066  0.36557161    -0.08500
C1671       C  0.95381981  0.02099333  0.35992493     0.61900
H1672       H  0.93795031  0.99394099  0.40775011     0.12500
H1673       H  0.85295653  0.08075924  0.33931810     0.12600
C1674       C  0.84084466  0.06045811  0.39317016     0.62100
F1675       F  0.97882851  0.03425795  0.38610073    -0.23100
F1676       F  0.95582613  0.04012600  0.33343423    -0.20400
F1677       F  0.95733021  0.98060410  0.35629117    -0.20100
F1678       F  0.82134465  0.08750077  0.37206100    -0.20100
F1679       F  0.85238617  0.07855388  0.42284346    -0.20500
F1680       F  0.82247825  0.02810859  0.39458640    -0.23100
Fe1681     Fe  0.89810274  0.91087639  0.95233556     1.65800
Fe1682     Fe  0.84587595  0.90331214  0.99040961     1.73200
Fe1683     Fe  0.88223988  0.99062203  0.99076766     1.54400
O1684       O  0.93011162  0.98857994  0.99575372    -0.81900
O1685       O  0.81087164  0.94227793  0.96956708    -0.80200
O1686       O  0.94300290  0.92697164  0.98494714    -0.84400
O1687       O  0.89968875  0.96283343  0.92868646    -0.79200
O1688       O  0.89607682  0.97380334  0.53928187    -0.81000
O1689       O  0.82938227  0.87210040  0.94721004    -0.83700
C1690       C  0.88644936  0.99679305  0.92548547     0.97000
C1691       C  0.95063973  0.96298070  0.99424474     1.04500
O1692       O  0.87612642  0.93500438  0.97850516    -1.12700
O1693       O  0.88249833  0.85935299  0.51327181    -0.75200
O1694       O  0.89781994  0.85340912  0.97149920    -0.78600
O1695       O  0.87195574  0.00893644  0.94395302    -0.79300
C1696       C  0.88990480  0.83975270  0.99438840     0.95900
O1697       O  0.85407502  0.89940591  0.91755863    -0.77300
O1698       O  0.85974302  0.92810574  0.53704996    -0.82500
C1699       C  0.81033261  0.97728050  0.97925648     0.98500
C1700       C  0.88010410  0.95378581  0.55259444     1.04500
O1701       O  0.83508829  0.99910240  0.98812419    -0.78100
C1702       C  0.82953419  0.88282348  0.92001400     1.02800
Fe1703     Fe  0.86574662  0.59924454  0.54060510     1.65800
Fe1704     Fe  0.90711763  0.59980005  0.49024539     1.73200
Fe1705     Fe  0.87046534  0.51661447  0.49784610     1.54400
O1706       O  0.87040282  0.49894188  0.54276066    -0.81900
O1707       O  0.87521293  0.59449784  0.94610594    -0.80200
O1708       O  0.87876964  0.55386030  0.57248141    -0.84400
O1709       O  0.81916100  0.57217956  0.52082498    -0.79200
O1710       O  0.91844203  0.50186764  0.51065943    -0.81000
O1711       O  0.89234633  0.65655154  0.99481553    -0.83700
C1712       C  0.80705708  0.54378706  0.50061660     0.97000
C1713       C  0.87404881  0.51693215  0.56895449     1.04500
O1714       O  0.88030716  0.57212621  0.50947971    -1.12700
O1715       O  0.94136970  0.60678113  0.53424148    -0.75200
O1716       O  0.91245162  0.62359356  0.56440254    -0.78600
O1717       O  0.82494307  0.52747669  0.98493413    -0.79300
C1718       C  0.93962224  0.61969066  0.56034328     0.95900
O1719       O  0.85126860  0.65082404  0.51341677    -0.77300
O1720       O  0.93077652  0.55242560  0.98242223    -0.82500
C1721       C  0.86922659  0.55986220  0.93415103     0.98500
C1722       C  0.93594654  0.51745429  0.49684025     1.04500
O1723       O  0.87013154  0.52918754  0.95112563    -0.78100
C1724       C  0.86837213  0.67058316  0.50122589     1.02800
Fe1725     Fe  0.63494721  0.91719656  0.79971206     1.65800
Fe1726     Fe  0.67162740  0.90694131  0.74527742     1.73200
Fe1727     Fe  0.64152351  0.99525236  0.75454936     1.54400
O1728       O  0.59385925  0.98939302  0.74475101    -0.81900
O1729       O  0.69603583  0.95274518  0.73586641    -0.80200
O1730       O  0.59008485  0.94778875  0.78203085    -0.84400
O1731       O  0.65228796  0.96355350  0.83076243    -0.79200
O1732       O  0.63469393  0.98201870  0.70681639    -0.81000
O1733       O  0.70733603  0.89800885  0.78840139    -0.83700
C1734       C  0.65056413  0.00071403  0.82684367     0.97000
C1735       C  0.57875620  0.97594053  0.76174625     1.04500
O1736       O  0.64865005  0.93959532  0.76649866    -1.12700
O1737       O  0.65229742  0.85460393  0.75067392    -0.75200
O1738       O  0.61631375  0.86524801  0.77383669    -0.78600
O1739       O  0.64612487  0.01669394  0.80001186    -0.79300
C1740       C  0.63097946  0.84230868  0.76065680     0.95900
O1741       O  0.68004441  0.88950352  0.82144676    -0.77300
O1742       O  0.63709168  0.91616151  0.70142783    -0.82500
C1743       C  0.70490083  0.98563106  0.74938968     0.98500
C1744       C  0.63123240  0.95078592  0.68953673     1.04500
O1745       O  0.68938870  0.00439861  0.76400573    -0.78100
C1746       C  0.70636659  0.88913803  0.81576562     1.02800
Fe1747     Fe  0.63186796  0.60293300  0.69776107     1.65800
Fe1748     Fe  0.58357305  0.60257548  0.74177008     1.73200
Fe1749     Fe  0.62501195  0.52028851  0.73816511     1.54400
O1750       O  0.62927154  0.50270854  0.69501530    -0.81900
O1751       O  0.61138770  0.59435915  0.78870803    -0.82600
O1752       O  0.62207969  0.55701925  0.66533060    -0.84400
O1753       O  0.67809792  0.57636928  0.72020916    -0.79200
O1754       O  0.57777487  0.50306268  0.72133141    -0.81000
O1755       O  0.60108606  0.65806487  0.74190518    -0.83700
C1756       C  0.68939483  0.54826246  0.74052273     0.97000
C1757       C  0.62702649  0.52005446  0.66920288     1.04500
O1758       O  0.61419235  0.57552605  0.72612639    -1.12700
O1759       O  0.55346374  0.61031763  0.69616780    -0.75200
O1760       O  0.58626696  0.62735677  0.67045310    -0.78600
O1761       O  0.67280360  0.53253916  0.75531371    -0.79300
C1762       C  0.55800628  0.62363051  0.67169149     0.95900
O1763       O  0.64344672  0.65409333  0.72676209    -0.77300
O1764       O  0.55982432  0.55257798  0.74360388    -0.82500
C1765       C  0.61903621  0.55989590  0.80025480     0.98500
C1766       C  0.55686557  0.51861701  0.73103231     1.04500
O1767       O  0.62280010  0.53068057  0.78345012    -0.78100
C1768       C  0.62466075  0.67378001  0.73738388     1.02800
Fe1769     Fe  0.86614114  0.41171220  0.79264760     1.65800
Fe1770     Fe  0.91475050  0.40431739  0.75055911     1.73200
Fe1771     Fe  0.87821652  0.49136962  0.75245215     1.54400
O1772       O  0.83168277  0.48949406  0.75060570    -0.81900
O1773       O  0.94930301  0.44443307  0.77069271    -0.80200
O1774       O  0.81921985  0.42953556  0.76329263    -0.84400
O1775       O  0.86685385  0.46343817  0.81722005    -0.79200
O1776       O  0.86451311  0.47600978  0.70458442    -0.81000
O1777       O  0.93328154  0.37176317  0.79216270    -0.83700
C1778       C  0.87771573  0.49842795  0.81891461     0.97000
C1779       C  0.81135060  0.46573571  0.75446820     1.04500
O1780       O  0.88548937  0.43579922  0.76461169    -1.12700
O1781       O  0.88062790  0.36337149  0.73061270    -0.75200
O1782       O  0.86480548  0.35448132  0.77183393    -0.78600
O1783       O  0.89052322  0.51113601  0.79938044    -0.79300
C1784       C  0.87216130  0.34064215  0.74841828     0.95900
O1785       O  0.91208533  0.39870761  0.82530004    -0.77300
O1786       O  0.90197834  0.43163470  0.70676174    -0.82500
C1787       C  0.94883246  0.47866237  0.75941574     0.98500
C1788       C  0.88101956  0.45628255  0.69125368     1.04500
O1789       O  0.92401615  0.50020365  0.75206553    -0.78100
C1790       C  0.93545702  0.38122549  0.82026841     1.02800
Fe1791     Fe  0.89758684  0.10127723  0.70443835     1.65800
Fe1792     Fe  0.85437989  0.10429488  0.75317918     1.73200
Fe1793     Fe  0.89087649  0.01993308  0.74587166     1.54400
O1794       O  0.89193417  0.00151373  0.70115988    -0.81900
O1795       O  0.88550792  0.09590455  0.79846048    -0.80200
O1796       O  0.88386634  0.05610913  0.67207077    -0.84400
O1797       O  0.94344193  0.07299035  0.72488164    -0.79200
O1798       O  0.84309571  0.00631319  0.73085422    -0.81000
O1799       O  0.87257949  0.15885784  0.75116922    -0.83700
C1800       C  0.95469300  0.04486767  0.74528493     0.97000
C1801       C  0.88813725  0.01915459  0.67504915     1.04500
O1802       O  0.88183276  0.07553523  0.73479244    -1.12700
O1803       O  0.82168434  0.11174150  0.70877027    -0.75200
O1804       O  0.85198101  0.12657260  0.67989650    -0.78600
O1805       O  0.93863463  0.03024814  0.76091852    -0.79300
C1806       C  0.82446443  0.12255874  0.68270103     0.95900
O1807       O  0.91218851  0.15257280  0.73209384    -0.77300
O1808       O  0.83063338  0.05525729  0.75797127    -0.82500
C1809       C  0.89157566  0.06119891  0.80990454     0.98500
C1810       C  0.82472652  0.02234565  0.74359796     1.04500
O1811       O  0.89182532  0.03069911  0.79268112    -0.78100
C1812       C  0.89503515  0.17339887  0.74389080     1.02800
Fe1813     Fe  0.63115200  0.09346140  0.54893264     1.65800
Fe1814     Fe  0.67982408  0.09548597  0.50560978     1.73200
Fe1815     Fe  0.63564404  0.01420104  0.50323271     1.54400
O1816       O  0.63057219  0.99442114  0.54558197    -0.81900
O1817       O  0.65269951  0.08870841  0.95928498    -0.80200
O1818       O  0.64239266  0.04604290  0.57912268    -0.84400
O1819       O  0.58523166  0.06690540  0.52730825    -0.79200
O1820       O  0.68213894  0.99400058  0.51888306    -0.81000
O1821       O  0.65828900  0.15180900  0.00579510    -0.83700
C1822       C  0.57321602  0.04162071  0.50460931     0.97000
C1823       C  0.63528317  0.00980932  0.57294429     1.04500
O1824       O  0.64853467  0.06780426  0.51916166    -1.12700
O1825       O  0.70976478  0.10100206  0.55158946    -0.75200
O1826       O  0.67601101  0.11849282  0.57625253    -0.78600
O1827       O  0.58993439  0.02617622  0.99008993    -0.79300
C1828       C  0.70447970  0.11421084  0.57594784     0.95900
O1829       O  0.61869189  0.14490687  0.52145348    -0.77300
O1830       O  0.70480767  0.04905479  0.00613963    -0.82500
C1831       C  0.64538069  0.05476657  0.94630503     0.98500
C1832       C  0.70434334  0.01007980  0.51169828     1.04500
O1833       O  0.64069728  0.02481034  0.96142445    -0.78100
C1834       C  0.63771487  0.16543324  0.51213397     1.02800
Fe1835     Fe  0.63006453  0.40662759  0.94610687     1.65800
Fe1836     Fe  0.59138325  0.40430634  0.99917155     1.73200
Fe1837     Fe  0.62442788  0.48896379  0.98855980     1.54400
O1838       O  0.67223334  0.48008261  0.00013848    -0.81900
O1839       O  0.56863396  0.45306854  0.00692833    -0.80200
O1840       O  0.67711065  0.43233704  0.96659681    -0.84400
O1841       O  0.61827404  0.45279574  0.91432303    -0.79200
O1842       O  0.62459758  0.47680221  0.53519944    -0.81000
O1843       O  0.55600299  0.39608297  0.95634549    -0.83700
C1844       C  0.62050558  0.49011055  0.91749122     0.97000
C1845       C  0.68856994  0.46173472  0.98604144     1.04500
O1846       O  0.61606963  0.43301637  0.97786445    -1.12700
O1847       O  0.60724682  0.34702937  0.49578954    -0.75200
O1848       O  0.64437647  0.35405351  0.97224207    -0.78600
O1849       O  0.62226812  0.50766087  0.94332775    -0.79300
C1850       C  0.62889807  0.33395098  0.98599036     0.95900
O1851       O  0.58244279  0.38435185  0.92279385    -0.77300
O1852       O  0.62126485  0.41180779  0.54286762    -0.82500
C1853       C  0.56027692  0.48522211  0.99242241     0.98500
C1854       C  0.62627777  0.44721309  0.55343448     1.04500
O1855       O  0.57640414  0.50137562  0.97741116    -0.78100
C1856       C  0.55613239  0.38650245  0.92890659     1.02800
C1857       C  0.60707050  0.26657928  0.97303179    -0.06000
C1858       C  0.63296475  0.29066875  0.99065214     0.00000
C1859       C  0.66088184  0.27327478  0.51560648    -0.08600
C1860       C  0.66030914  0.23265611  0.52249699    -0.06000
C1861       C  0.63367696  0.20856971  0.50677491    -0.00100
C1862       C  0.60547715  0.22607212  0.98009913    -0.08500
C1863       C  0.57773325  0.20069276  0.96013536     0.61900
H1864       H  0.58771801  0.28009452  0.95398468     0.12500
H1865       H  0.68084808  0.21917377  0.54015815     0.12600
C1866       C  0.68939301  0.29875435  0.53366474     0.62100
F1867       F  0.55591433  0.22232671  0.93610552    -0.23100
F1868       F  0.56209566  0.18534593  0.97932364    -0.20400
F1869       F  0.58886027  0.16973555  0.94622766    -0.20100
F1870       F  0.67986614  0.32942202  0.54920941    -0.20100
F1871       F  0.70252769  0.31452415  0.51250869    -0.20500
F1872       F  0.71281352  0.27711633  0.55620092    -0.23100
C1873       C  0.76482731  0.12263926  0.66091048    -0.06000
C1874       C  0.79371042  0.12856568  0.65504097     0.00000
C1875       C  0.79170806  0.13663263  0.62322246    -0.08600
C1876       C  0.76161990  0.13428712  0.59866136    -0.06000
C1877       C  0.73336980  0.12427120  0.60436051    -0.00100
C1878       C  0.73485250  0.12018936  0.63637943    -0.08500
C1879       C  0.70540128  0.11170122  0.64494780     0.61900
H1880       H  0.76583745  0.11814949  0.68516460     0.12500
H1881       H  0.76014470  0.13888221  0.57425041     0.12600
C1882       C  0.82081716  0.14709228  0.61464445     0.62100
F1883       F  0.71242313  0.10850207  0.67753488    -0.23100
F1884       F  0.69185848  0.07629148  0.63108980    -0.20400
F1885       F  0.68358493  0.14229396  0.63433745    -0.20100
F1886       F  0.84112399  0.11471774  0.61961014    -0.20100
F1887       F  0.83656271  0.17887971  0.63310110    -0.20500
F1888       F  0.81266520  0.15792256  0.58299915    -0.23100
C1889       C  0.52322006  0.36840180  0.87240772    -0.06000
C1890       C  0.52399239  0.37925217  0.90310290     0.00000
C1891       C  0.49389821  0.38417925  0.90782464    -0.08600
C1892       C  0.96654875  0.37757496  0.87881763    -0.06000
C1893       C  0.96635053  0.37302614  0.84750388    -0.00100
C1894       C  0.49437123  0.36519472  0.84609452    -0.08500
C1895       C  0.49605177  0.34891815  0.81482069     0.61900
H1896       H  0.54570893  0.36261024  0.86900157     0.12500
H1897       H  0.94398918  0.38275406  0.88225437     0.12600
C1898       C  0.49071324  0.38847660  0.94062747     0.62100
F1899       F  0.52640419  0.33569662  0.81788147    -0.23100
F1900       F  0.98926867  0.37809639  0.78938969    -0.20400
F1901       F  0.47560655  0.31695370  0.80479438    -0.20100
F1902       F  0.50291327  0.42438771  0.95435866    -0.20100
F1903       F  0.50665599  0.35770323  0.96002741    -0.20500
F1904       F  0.96020678  0.36669612  0.93625982    -0.23100
C1905       C  0.88544593  0.23778288  0.71772957    -0.06000
C1906       C  0.89761360  0.21693829  0.74647419     0.00000
C1907       C  0.90124082  0.23697847  0.77549305    -0.08600
C1908       C  0.89089410  0.27654215  0.77461703    -0.06000
C1909       C  0.87760523  0.29725621  0.74584830    -0.00100
C1910       C  0.87554022  0.27775792  0.71677079    -0.08500
C1911       C  0.86247071  0.29832512  0.68469520     0.61900
H1912       H  0.88223015  0.22173643  0.69571882     0.12500
H1913       H  0.89421213  0.29178816  0.79700734     0.12600
C1914       C  0.91639564  0.21838235  0.80807324     0.62100
F1915       F  0.85557654  0.27150522  0.65956813    -0.23100
F1916       F  0.88482198  0.32469420  0.68161791    -0.20400
F1917       F  0.83462018  0.31852085  0.68212783    -0.20100
F1918       F  0.92602227  0.17953775  0.80662099    -0.20100
F1919       F  0.89487284  0.21926567  0.82415505    -0.20500
F1920       F  0.94300938  0.24022052  0.82526050    -0.23100
C1921       C  0.72498242  0.48791346  0.75288267    -0.06000
C1922       C  0.72152145  0.52891062  0.74523952     0.00000
C1923       C  0.74766237  0.54822898  0.74072080    -0.08600
C1924       C  0.77511875  0.52572020  0.74241126    -0.06000
C1925       C  0.77882476  0.48455142  0.75003102    -0.00100
C1926       C  0.75308623  0.46567764  0.75598355    -0.08500
C1927       C  0.75507960  0.42252650  0.76598577     0.61900
H1928       H  0.70503091  0.47288826  0.75628140     0.12500
H1929       H  0.79441645  0.54114471  0.73813083     0.12600
C1930       C  0.74739218  0.59276006  0.73545333     0.62100
F1931       F  0.72733581  0.40992880  0.77019968    -0.23100
F1932       F  0.77983113  0.41766986  0.79463296    -0.20400
F1933       F  0.76017970  0.39865760  0.74282776    -0.20100
F1934       F  0.73817204  0.61234786  0.75825625    -0.20100
F1935       F  0.72645724  0.60198559  0.70543759    -0.20500
F1936       F  0.77725018  0.60674288  0.73784703    -0.23100
C1937       C  0.49996519  0.52006406  0.71594728    -0.06000
C1938       C  0.52803830  0.49822309  0.73004058     0.00000
C1939       C  0.52967440  0.46985473  0.75342347    -0.08600
C1940       C  0.50374206  0.46654464  0.76394840    -0.06000
C1941       C  0.97661069  0.49014439  0.75079717    -0.00100
C1942       C  0.97465414  0.51788271  0.72636186    -0.08500
C1943       C  0.94739795  0.54756445  0.71366675     0.61900
H1944       H  0.49993815  0.54214488  0.69842018     0.12500
H1945       H  0.50533611  0.44579212  0.78275418     0.12600
C1946       C  0.55935500  0.44471863  0.76830240     0.62100
F1947       F  0.91933629  0.52814097  0.69742546    -0.23100
F1948       F  0.94392756  0.56928099  0.73872546    -0.20400
F1949       F  0.95279726  0.57420739  0.69269296    -0.20100
F1950       F  0.56756705  0.42603371  0.74451101    -0.20100
F1951       F  0.55463922  0.41574432  0.78802087    -0.20500
F1952       F  0.58431986  0.46841446  0.78626458    -0.23100
C1953       C  0.64706847  0.52541551  0.84999854    -0.06000
C1954       C  0.62233497  0.55122418  0.83372560     0.00000
C1955       C  0.59863770  0.56106646  0.84725198    -0.08600
C1956       C  0.59929891  0.54170259  0.87547077    -0.06000
C1957       C  0.62275205  0.51328479  0.89017159    -0.00100
C1958       C  0.64790755  0.50643005  0.87801987    -0.08500
C1959       C  0.67627353  0.48017154  0.89494927     0.61900
H1960       H  0.66524414  0.51889500  0.83964224     0.12500
H1961       H  0.58079721  0.54736373  0.88554662     0.12600
C1962       C  0.57218287  0.59056110  0.83149694     0.62100
F1963       F  0.69942379  0.48109597  0.88078579    -0.23100
F1964       F  0.66679160  0.44121511  0.89499136    -0.20400
F1965       F  0.69003347  0.49374553  0.92573000    -0.20100
F1966       F  0.55445784  0.57758211  0.80116560    -0.20100
F1967       F  0.58531058  0.62717508  0.82971909    -0.20500
F1968       F  0.55163663  0.59540092  0.84847736    -0.23100
C1969       C  0.65375724  0.48637822  0.60113981    -0.06000
C1970       C  0.63157262  0.45649110  0.58723570     0.00000
C1971       C  0.61063393  0.44354458  0.60300363    -0.08600
C1972       C  0.61075658  0.46403532  0.63071000    -0.06000
C1973       C  0.63082608  0.49661954  0.64261372    -0.00100
C1974       C  0.65394584  0.50665169  0.62870001    -0.08500
C1975       C  0.67920870  0.53802905  0.64304584     0.61900
H1976       H  0.66991597  0.49526366  0.58906847     0.12500
H1977       H  0.59405560  0.45610151  0.64239486     0.12600
C1978       C  0.58725513  0.40973532  0.59009293     0.62100
F1979       F  0.70131123  0.53961560  0.62762925    -0.23100
F1980       F  0.69547099  0.52900727  0.67453679    -0.20400
F1981       F  0.66531237  0.57513821  0.64103820    -0.20100
F1982       F  0.60369470  0.37557292  0.58781094    -0.20100
F1983       F  0.56593624  0.41920261  0.56038698    -0.20500
F1984       F  0.56982244  0.40179758  0.60968015    -0.23100
C1985       C  0.60081397  0.74071906  0.72765254    -0.06000
C1986       C  0.62777527  0.71711800  0.74347793     0.00000
C1987       C  0.65399932  0.73440779  0.76741209    -0.08600
C1988       C  0.65263319  0.77517555  0.77424454    -0.06000
C1989       C  0.62602808  0.79895784  0.75783217    -0.00100
C1990       C  0.59975781  0.78165350  0.73403928    -0.08500
C1991       C  0.57157428  0.80680847  0.71469236     0.61900
H1992       H  0.58064152  0.72677748  0.70977231     0.12500
H1993       H  0.67298210  0.78931721  0.79173569     0.12600
C1994       C  0.68298842  0.70982087  0.78570408     0.62100
F1995       F  0.54791804  0.78414089  0.69324710    -0.23100
F1996       F  0.58160192  0.83480619  0.69773154    -0.20400
F1997       F  0.55857526  0.82602061  0.73487382    -0.20100
F1998       F  0.69711090  0.69470451  0.76488469    -0.20100
F1999       F  0.67386121  0.67875403  0.80068784    -0.20500
F2000       F  0.70551178  0.73211263  0.80873799    -0.23100
C2001       C  0.62002001  0.02901311  0.85807011    -0.06000
C2002       C  0.64982869  0.02496448  0.85427434     0.00000
C2003       C  0.67778343  0.03583040  0.87952990    -0.08600
C2004       C  0.67513546  0.04783069  0.90888362    -0.06000
C2005       C  0.64545787  0.04864486  0.91344442    -0.00100
C2006       C  0.61739559  0.04037817  0.88744808    -0.08500
C2007       C  0.58513293  0.04075720  0.89145858     0.61900
H2008       H  0.59888986  0.02005908  0.83850590     0.12500
H2009       H  0.69640279  0.05478874  0.92896928     0.12600
C2010       C  0.70998297  0.03458847  0.87517445     0.62100
F2011       F  0.56044912  0.03751082  0.86250781    -0.23100
F2012       F  0.58100294  0.07578392  0.90602501    -0.20400
F2013       F  0.58356582  0.00898756  0.91013962    -0.20100
F2014       F  0.70952796  0.06044372  0.85116827    -0.20100
F2015       F  0.71639626  0.99666540  0.86682779    -0.20500
F2016       F  0.73442533  0.04576524  0.90269251    -0.23100
C2017       C  0.64705962  0.94024841  0.64247023    -0.06000
C2018       C  0.62469160  0.95632640  0.65509841     0.00000
C2019       C  0.60197447  0.98424051  0.63695543    -0.08600
C2020       C  0.60528893  0.99921168  0.60904792    -0.06000
C2021       C  0.62985600  0.98634221  0.59835096    -0.00100
C2022       C  0.64990269  0.95478450  0.61405065    -0.08500
C2023       C  0.67513899  0.93823159  0.60173395     0.61900
H2024       H  0.66405885  0.91859446  0.65636925     0.12500
H2025       H  0.58906792  0.02216715  0.59595901     0.12600
C2026       C  0.57364923  0.99873261  0.64549721     0.62100
F2027       F  0.69225642  0.90764291  0.62057500    -0.23100
F2028       F  0.69624915  0.96789479  0.60125848    -0.20400
F2029       F  0.66071809  0.92355578  0.57115155    -0.20100
F2030       F  0.57462022  0.03967776  0.64853098    -0.20100
F2031       F  0.57234036  0.98260311  0.67333593    -0.20500
F2032       F  0.54596637  0.98804388  0.62125254    -0.23100
C2033       C  0.52448861  0.97403504  0.76603502    -0.06000
C2034       C  0.54729053  0.99553873  0.75804771     0.00000
C2035       C  0.54016541  0.03604841  0.74820336    -0.08600
C2036       C  0.51003440  0.05215611  0.74529610    -0.06000
C2037       C  0.98690337  0.02624603  0.75013088    -0.00100
C2038       C  0.99404842  0.98527875  0.75858698    -0.08500
C2039       C  0.97007602  0.95706457  0.76436804     0.61900
H2040       H  0.53036751  0.94381357  0.77403517     0.12500
H2041       H  0.50411745  0.08230656  0.73708105     0.12600
C2042       C  0.56413989  0.06341792  0.74151565     0.62100
F2043       F  0.98116227  0.91828492  0.76876434    -0.23100
F2044       F  0.94213851  0.95701912  0.73836602    -0.20400
F2045       F  0.96391571  0.96844541  0.79150128    -0.20100
F2046       F  0.56945049  0.05123027  0.71413079    -0.20100
F2047       F  0.59248278  0.06330398  0.76707570    -0.20500
F2048       F  0.55347904  0.10236264  0.73696168    -0.23100
C2049       C  0.79192789  0.00258503  0.77347216    -0.06000
C2050       C  0.79554365  0.00390522  0.74351039     0.00000
C2051       C  0.76882886  0.00134411  0.71529625    -0.08600
C2052       C  0.73866454  0.99900539  0.71817357    -0.06000
C2053       C  0.73504599  0.99956710  0.74823302    -0.00100
C2054       C  0.76182476  0.00141726  0.77631458    -0.08500
C2055       C  0.75856628  0.00304884  0.80898229     0.61900
H2056       H  0.81291345  0.00567386  0.79462742     0.12500
H2057       H  0.71764858  0.99563708  0.69706425     0.12600
C2058       C  0.77226104  0.00102754  0.68262826     0.62100
F2059       F  0.74141912  0.97097856  0.81325616    -0.23100
F2060       F  0.74293095  0.03765887  0.81177997    -0.20400
F2061       F  0.78795192  0.00248019  0.83299061    -0.20100
F2062       F  0.78998208  0.96820737  0.67997436    -0.20100
F2063       F  0.78753097  0.03500551  0.67846098    -0.20500
F2064       F  0.74293370  0.99922204  0.65835552    -0.23100
C2065       C  0.96998905  0.63832882  0.61758451    -0.06000
C2066       C  0.97071641  0.62874775  0.58712474     0.00000
C2067       C  0.50186237  0.62870415  0.58517572    -0.08600
C2068       C  0.52976308  0.62831101  0.61264377    -0.06000
C2069       C  0.52862815  0.63275301  0.64344141    -0.00100
C2070       C  0.49857508  0.64202394  0.64654762    -0.08500
C2071       C  0.99578334  0.65925597  0.67519072     0.61900
H2072       H  0.94706995  0.64263622  0.62045611     0.12500
H2073       H  0.55277003  0.62290494  0.61023016     0.12600
C2074       C  0.50610952  0.62723209  0.55275641     0.62100
F2075       F  0.96706147  0.67894251  0.66966176    -0.23100
F2076       F  0.51983824  0.68254240  0.69292304    -0.20400
F2077       F  0.49790119  0.62379785  0.69775101    -0.20100
F2078       F  0.48782089  0.65655673  0.53328513    -0.20100
F2079       F  0.99780907  0.59001450  0.53652780    -0.20500
F2080       F  0.53749841  0.63371674  0.55526395    -0.23100
C2081       C  0.85106196  0.48801034  0.63986118    -0.06000
C2082       C  0.87716083  0.46441560  0.65720987     0.00000
C2083       C  0.89992703  0.45301206  0.64253753    -0.08600
C2084       C  0.89688601  0.46886848  0.61249223    -0.06000
C2085       C  0.87226067  0.49506075  0.59682489    -0.00100
C2086       C  0.84816247  0.50352835  0.60998684    -0.08500
C2087       C  0.81897881  0.52815270  0.59228093     0.61900
H2088       H  0.83320507  0.49539317  0.65035484     0.12500
H2089       H  0.91467598  0.46260004  0.60162138     0.12600
C2090       C  0.92795375  0.42539414  0.65821951     0.62100
F2091       F  0.82777462  0.56629366  0.58786491    -0.23100
F2092       F  0.80348546  0.51040617  0.56318105    -0.20400
F2093       F  0.79757590  0.53079336  0.60849239    -0.20100
F2094       F  0.91687262  0.38941297  0.66474885    -0.20100
F2095       F  0.94821286  0.44233524  0.68604276    -0.20500
F2096       F  0.94570934  0.41768762  0.63876168    -0.23100
C2097       C  0.89184177  0.56587196  0.89125713    -0.06000
C2098       C  0.86633162  0.55353586  0.90066960     0.00000
C2099       C  0.84177159  0.53016919  0.87986047    -0.08600
C2100       C  0.84538516  0.51605912  0.85174460    -0.06000
C2101       C  0.87294640  0.52395113  0.84416250    -0.00100
C2102       C  0.89544426  0.55172674  0.86285806    -0.08500
C2103       C  0.92306988  0.56586689  0.85330996     0.61900
H2104       H  0.91000266  0.58472292  0.90732440     0.12500
H2105       H  0.82731043  0.49658651  0.83625685     0.12600
C2106       C  0.81224525  0.51947675  0.88761675     0.62100
F2107       F  0.94285018  0.59147728  0.87581687    -0.23100
F2108       F  0.91121831  0.58590486  0.82471990    -0.20400
F2109       F  0.94123816  0.53399097  0.84975486    -0.20100
F2110       F  0.79966979  0.55330164  0.89662644    -0.20100
F2111       F  0.81996082  0.49234618  0.91216960    -0.20500
F2112       F  0.78883615  0.50285866  0.86157906    -0.23100
C2113       C  0.72224999  0.52256174  0.99412274    -0.06000
C2114       C  0.72060013  0.48057914  0.99056922     0.00000
C2115       C  0.74833029  0.46019050  0.99040165    -0.08600
C2116       C  0.77609831  0.48247267  0.99323790    -0.06000
C2117       C  0.77521000  0.52460860  0.49692410    -0.00100
C2118       C  0.74920516  0.54391362  0.50227693    -0.08500
C2119       C  0.75015073  0.58791784  0.51015786     0.61900
H2120       H  0.70099970  0.53844035  0.99378532     0.12500
H2121       H  0.79737862  0.46677436  0.99342688     0.12600
C2122       C  0.74908615  0.41522658  0.98836099     0.62100
F2123       F  0.71914056  0.60374212  0.99673390    -0.23100
F2124       F  0.75806937  0.60636374  0.97584764    -0.20400
F2125       F  0.77227820  0.59487980  0.54010055    -0.20100
F2126       F  0.72922897  0.40260635  0.95868338    -0.20100
F2127       F  0.73500660  0.39623895  0.50182481    -0.20500
F2128       F  0.77949475  0.40099366  0.99286404    -0.23100
C2129       C  0.52330693  0.49658555  0.52259134    -0.06000
C2130       C  0.53044565  0.50147407  0.99390785     0.00000
C2131       C  0.50514085  0.51183510  0.96614309    -0.08600
C2132       C  0.97096942  0.50268654  0.96544586    -0.06000
C2133       C  0.96518630  0.49947370  0.49555237    -0.00100
C2134       C  0.99224376  0.49665339  0.52333243    -0.08500
C2135       C  0.98928824  0.49223769  0.55600257     0.61900
H2136       H  0.54459457  0.49282132  0.54338561     0.12500
H2137       H  0.95009209  0.50733394  0.94440162     0.12600
C2138       C  0.51017375  0.51882016  0.93466901     0.62100
F2139       F  0.52022823  0.49113554  0.58277819    -0.23100
F2140       F  0.97171808  0.45857922  0.55610705    -0.20400
F2141       F  0.97411986  0.52498206  0.56318299    -0.20100
F2142       F  0.52271996  0.48522638  0.92530788    -0.20100
F2143       F  0.53087789  0.55025137  0.93793829    -0.20500
F2144       F  0.97502202  0.50287558  0.90571309    -0.23100
C2145       C  0.77182556  0.86343733  0.89616714    -0.06000
C2146       C  0.79948486  0.87773564  0.89124084     0.00000
C2147       C  0.79648314  0.89004178  0.85988814    -0.08600
C2148       C  0.76599267  0.89033488  0.83601636    -0.06000
C2149       C  0.73784367  0.88039224  0.84187677    -0.00100
C2150       C  0.74114157  0.86459069  0.87229206    -0.08500
C2151       C  0.71277355  0.84889379  0.87997502     0.61900
H2152       H  0.77404842  0.85284388  0.91962902     0.12500
H2153       H  0.76389925  0.90054161  0.81250268     0.12600
C2154       C  0.82477356  0.90402066  0.85113749     0.62100
F2155       F  0.72217406  0.82899841  0.90874831    -0.23100
F2156       F  0.69572553  0.82242942  0.85651491    -0.20400
F2157       F  0.69320885  0.88004305  0.88200043    -0.20100
F2158       F  0.84864177  0.87554825  0.85963019    -0.20100
F2159       F  0.83616552  0.93951602  0.86653129    -0.20500
F2160       F  0.81668174  0.91044384  0.81872968    -0.23100
C2161       C  0.87373806  0.77399613  0.96948162    -0.06000
C2162       C  0.88629259  0.79629264  0.99773260     0.00000
C2163       C  0.88985568  0.77485776  0.52792796    -0.08600
C2164       C  0.87784407  0.73606173  0.52684920    -0.06000
C2165       C  0.86661953  0.71421616  0.49836189    -0.00100
C2166       C  0.86500740  0.73397408  0.96968894    -0.08500
C2167       C  0.85359104  0.71070555  0.93855706     0.61900
H2168       H  0.87065449  0.78823859  0.94697450     0.12500
H2169       H  0.87982334  0.72133545  0.54895725     0.12600
C2170       C  0.90425206  0.79413408  0.56059443     0.62100
F2171       F  0.84422114  0.73563708  0.91245335    -0.23100
F2172       F  0.82774531  0.68738527  0.93720984    -0.20400
F2173       F  0.87798154  0.68667969  0.93633015    -0.20100
F2174       F  0.87994661  0.80798425  0.57051778    -0.20100
F2175       F  0.92449425  0.82508943  0.56073507    -0.20500
F2176       F  0.92202467  0.76651229  0.58238288    -0.23100
C2177       C  0.52860755  0.02652295  0.52499883    -0.06000
C2178       C  0.54199187  0.02077821  0.50091160     0.00000
C2179       C  0.52471760  0.99662965  0.97439155    -0.08600
C2180       C  0.49779637  0.97505941  0.97488201    -0.06000
C2181       C  0.98333902  0.97862527  0.99943082    -0.00100
C2182       C  0.00051268  0.00655942  0.52673698    -0.08500
C2183       C  0.98784755  0.01422637  0.55379710     0.61900
H2184       H  0.53977070  0.04771719  0.54384055     0.12500
H2185       H  0.98105113  0.95762926  0.95354438     0.12600
C2186       C  0.53453816  0.99255674  0.94519402     0.62100
F2187       F  0.00924218  0.03573220  0.57838903    -0.23100
F2188       F  0.98231461  0.97851902  0.56604555    -0.20400
F2189       F  0.95973283  0.03570182  0.54287261    -0.20100
F2190       F  0.56224556  0.97032589  0.95248179    -0.20100
F2191       F  0.53908090  0.02988903  0.93485399    -0.20500
F2192       F  0.51146020  0.97367838  0.92017310    -0.23100
C2193       C  0.72982676  0.97055832  0.98745310    -0.06000
C2194       C  0.73209309  0.98821403  0.51120889     0.00000
C2195       C  0.76244115  0.00203261  0.53053064    -0.08600
C2196       C  0.78755290  0.00022577  0.51858471    -0.06000
C2197       C  0.78190763  0.98911271  0.98645658    -0.00100
C2198       C  0.75207775  0.97002119  0.97176943    -0.08500
C2199       C  0.74225652  0.94977703  0.93935369     0.61900
H2200       H  0.70640125  0.95773556  0.97567740     0.12500
H2201       H  0.81103764  0.01018902  0.53362855     0.12600
C2202       C  0.76878190  0.02023306  0.56332061     0.62100
F2203       F  0.71109752  0.95986138  0.92169224    -0.23100
F2204       F  0.74403962  0.90912812  0.94351866    -0.20400
F2205       F  0.76112463  0.96083182  0.92192715    -0.20100
F2206       F  0.74277254  0.01734440  0.57332678    -0.20100
F2207       F  0.77649314  0.05983466  0.56277186    -0.20500
F2208       F  0.79414249  0.00084299  0.58534644    -0.23100
C2209       C  0.90870062  0.99071928  0.60220802    -0.06000
C2210       C  0.88458781  0.96325375  0.58679241     0.00000
C2211       C  0.86448584  0.94949940  0.60347981    -0.08600
C2212       C  0.86764409  0.96673429  0.63343360    -0.06000
C2213       C  0.88965450  0.99703979  0.64680092    -0.00100
C2214       C  0.91135091  0.00830315  0.63151576    -0.08500
C2215       C  0.93733061  0.03904737  0.64581234     0.61900
H2216       H  0.92487637  0.00008902  0.59037129     0.12500
H2217       H  0.85176753  0.95824298  0.64589689     0.12600
C2218       C  0.83944047  0.91753369  0.59008929     0.62100
F2219       F  0.95828700  0.04144000  0.62912431    -0.23100
F2220       F  0.95485277  0.02881220  0.67676486    -0.20400
F2221       F  0.92395733  0.07625803  0.64540928    -0.20100
F2222       F  0.85372467  0.88355627  0.58360649    -0.20100
F2223       F  0.81625077  0.93065366  0.56253875    -0.20500
F2224       F  0.82436781  0.90750065  0.61136081    -0.23100
C2225       C  0.91759783  0.01754199  0.89207018    -0.06000
C2226       C  0.88940620  0.02196619  0.89939801     0.00000
C2227       C  0.86469987  0.04681757  0.88004522    -0.08600
C2228       C  0.86766082  0.06244493  0.85196067    -0.06000
C2229       C  0.89468769  0.05470883  0.84340049    -0.00100
C2230       C  0.92086819  0.03420303  0.86468410    -0.08500
C2231       C  0.95259967  0.02908140  0.85961528     0.61900
H2232       H  0.93707971  0.00027636  0.90752912     0.12500
H2233       H  0.84811098  0.07878212  0.83552470     0.12600
C2234       C  0.83502765  0.05577865  0.88823651     0.62100
F2235       F  0.97673144  0.04258042  0.88641882    -0.23100
F2236       F  0.95442623  0.05019344  0.83388840    -0.20400
F2237       F  0.95762983  0.98930171  0.85498932    -0.20100
F2238       F  0.81301360  0.07802606  0.86483560    -0.20100
F2239       F  0.84345644  0.07717891  0.91645694    -0.20500
F2240       F  0.82045661  0.02086929  0.89173241    -0.23100
loop_ 
_geom_bond_atom_site_label_1 
_geom_bond_atom_site_label_2 
_geom_bond_distance 
_geom_bond_site_symmetry_2 
_ccdc_geom_bond_type 
Fe1          O17   2.085       .  S
Fe1           O7   2.058       .  S
Fe1          O14   2.120       .  S
Fe1           O6   2.112       .  S
Fe1          O12   1.939       .  S
Fe2           O5   2.011       .  S
Fe2           O9   2.087       .  S
Fe2         O573   2.026       .  S
Fe2         O578   2.083       .  S
Fe2          O12   1.940       .  S
Fe3          O21   2.080   1_565  S
Fe3          O15   2.079   1_565  S
Fe3           O4   2.065       .  S
Fe3         O568   2.068       .  S
Fe3          O12   1.941       .  S
O4           C11   1.271       .  A
O5           C19   1.257       .  A
O6           C11   1.290       .  A
O7           C10   1.269       .  A
O8         Fe563   2.057   1_554  S
O8           C20   1.273       .  A
O9           C22   1.272       .  A
C10          O15   1.273   1_565  A
C10         C546   1.495   1_565  S
C11         C501   1.499       .  S
O13        Fe562   2.019   1_554  S
O13         C576   1.253   1_554  A
O14          C16   1.279       .  A
C16         O573   1.257       .  A
C16         C482   1.489       .  S
O17          C22   1.272       .  A
O18        Fe562   2.078   1_554  S
O18          C20   1.269       .  A
C19          O21   1.272   1_565  A
C19         C517   1.459       .  S
C20         C530   1.496       .  S
C22         C466   1.514       .  S
Fe23         O39   2.102       .  S
Fe23         O29   2.162       .  S
Fe23         O36   2.149       .  S
Fe23         O28   2.046       .  S
Fe23         O34   1.946       .  S
Fe24         O35   2.044   1_556  S
Fe24        O587   2.044       .  S
Fe24        O591   2.009       .  S
Fe24        O600   2.013       .  S
Fe24         O34   1.949   1_556  S
Fe25         O30   2.073   1_556  S
Fe25         O26   2.098   1_556  S
Fe25        O603   2.103       .  S
Fe25        O597   2.043       .  S
Fe25         O34   1.950   1_556  S
O26          C33   1.272       .  A
O27        Fe584   2.051       .  S
O27          C41   1.271       .  A
O28          C33   1.262       .  A
O29          C32   1.297       .  A
O30          C42   1.268   1_554  A
O31        Fe584   2.022       .  S
O31         C604   1.255       .  A
C32         O597   1.272   1_554  A
C32         C437   1.521   1_554  S
C33         C405   1.486       .  S
O35          C38   1.268       .  A
O36          C38   1.293       .  A
O37        Fe585   2.041       .  S
O37         C592   1.271       .  A
C38         C386   1.519       .  S
O39          C44   1.272       .  A
O40        Fe584   2.011       .  S
O40         C602   1.256       .  A
C41          O43   1.278       .  A
C41         C418   1.481       .  S
C42         O600   1.255       .  A
C42         C453   1.459       .  S
O43        Fe585   2.101       .  S
C44         O591   1.252   1_554  A
C44         C485   1.473       .  S
Fe45         O61   2.131       .  S
Fe45         O51   2.051       .  S
Fe45         O58   2.100       .  S
Fe45         O50   2.142       .  S
Fe45         O56   1.951       .  S
Fe46         O49   2.012       .  S
Fe46         O53   2.045       .  S
Fe46         O57   2.017       .  S
Fe46         O62   2.060       .  S
Fe46         O56   1.952       .  S
Fe47         O65   2.060       .  S
Fe47         O52   2.098       .  S
Fe47         O59   2.091   1_565  S
Fe47         O48   2.037       .  S
Fe47         O56   1.948       .  S
O48          C55   1.267       .  A
O49          C63   1.256       .  A
O50          C55   1.293       .  A
O51          C54   1.264       .  A
O52          C64   1.278       .  A
O53          C66   1.272       .  A
C54          O59   1.269   1_565  A
C54         C322   1.480   1_565  S
C55         C354   1.508       .  S
O57          C60   1.255       .  A
O58          C60   1.273       .  A
C60         C309   1.473       .  S
O61          C66   1.285       .  A
O62          C64   1.273       .  A
C63          O65   1.266       .  A
C63         C373   1.445       .  S
C64         C338   1.480       .  S
C66         C469   1.516       .  S
Fe67         O83   2.095       .  S
Fe67         O73   2.142       .  S
Fe67         O80   2.141       .  S
Fe67         O72   2.046       .  S
Fe67         O78   1.940       .  S
Fe68         O71   2.048       .  S
Fe68         O75   2.024       .  S
Fe68         O79   2.033       .  S
Fe68         O84   2.010       .  S
Fe68         O78   1.945       .  S
Fe69         O87   2.089       .  S
Fe69         O74   2.070       .  S
Fe69         O81   2.052       .  S
Fe69         O70   2.077       .  S
Fe69         O78   1.949       .  S
O70          C77   1.269       .  A
O71          C85   1.269       .  A
O72          C77   1.264       .  A
O73          C76   1.290       .  A
O74          C86   1.267       .  A
O75          C88   1.257       .  A
C76          O81   1.272       .  A
C76         C242   1.515       .  S
C77         C293   1.473       .  S
O79          C82   1.265       .  A
O80          C82   1.287       .  A
C82         C389   1.503       .  S
O83          C88   1.274       .  A
O84          C86   1.256       .  A
C85          O87   1.278       .  A
C85         C274   1.478       .  S
C86         C258   1.449       .  S
C88         C306   1.475       .  S
Fe89        O105   2.102       .  S
Fe89         O95   2.046       .  S
Fe89        O102   2.120       .  S
Fe89         O94   2.130       .  S
Fe89        O100   1.940       .  S
Fe90         O93   2.016       .  S
Fe90         O97   2.079       .  S
Fe90        O101   2.021       .  S
Fe90        O106   2.067       .  S
Fe90        O100   1.942       .  S
Fe91        O109   2.081       .  S
Fe91         O96   2.080       .  S
Fe91        O103   2.097       .  S
Fe91         O92   2.056       .  S
Fe91        O100   1.946       .  S
O92          C99   1.271       .  A
O93         C107   1.260       .  A
O94          C99   1.291       .  A
O95          C98   1.268       .  A
O96         C108   1.277       .  A
O97         C110   1.266       .  A
C98         O103   1.278       .  A
C98         C421   1.495       .  S
C99         C245   1.527       .  S
O101        C104   1.257       .  A
O102        C104   1.279       .  A
C104        C229   1.485       .  S
O105        C110   1.278       .  A
O106        C108   1.265       .  A
C107        O109   1.269       .  A
C107        C261   1.479       .  S
C108        C402   1.502       .  S
C110        C213   1.515       .  S
Fe111       O127   2.090       .  S
Fe111       O117   2.153       .  S
Fe111       O124   2.135       .  S
Fe111       O116   2.032       .  S
Fe111       O122   1.944       .  S
Fe112       O115   2.045       .  S
Fe112       O119   2.018       .  S
Fe112       O123   2.034       .  S
Fe112       O128   2.016       .  S
Fe112       O122   1.942       .  S
Fe113       O131   2.099       .  S
Fe113       O118   2.049       .  S
Fe113       O125   2.021       .  S
Fe113       O114   2.095   1_545  S
Fe113       O122   1.940       .  S
O114        C121   1.271   1_565  A
O115        C129   1.272       .  A
O116        C121   1.259       .  A
O117        C120   1.295       .  A
O118        C130   1.262       .  A
O119        C132   1.254       .  A
C120        O125   1.262       .  A
C120        C357   1.502       .  S
C121        C533   1.477   1_545  S
O123        C126   1.271       .  A
O124        C126   1.288       .  A
C126        C194   1.512       .  S
O127        C132   1.271       .  A
O128        C130   1.256       .  A
C129        O131   1.280       .  A
C129        C549   1.474       .  S
C130        C370   1.444   1_545  S
C132        C226   1.470       .  S
Fe133       O149   2.111       .  S
Fe133       O139   2.128       .  S
Fe133       O146   2.120       .  S
Fe133       O138   2.056       .  S
Fe133       O144   1.967       .  S
Fe134       O145   2.038       .  S
Fe134       O697   2.055   1_554  S
Fe134       O701   2.025       .  S
Fe134       O710   2.005       .  S
Fe134       O144   1.966       .  S
Fe135       O140   2.061   1_545  S
Fe135       O136   2.093   1_545  S
Fe135       O713   2.109   1_554  S
Fe135       O707   2.052   1_554  S
Fe135       O144   1.967       .  S
O136        C143   1.272   1_565  A
O137       Fe694   2.071       .  S
O137        C151   1.273       .  A
O138        C143   1.267       .  A
O139        C142   1.287       .  A
O140        C152   1.264   1_565  A
O141       Fe694   2.022       .  S
O141        C714   1.257       .  A
C142        O707   1.269   1_554  A
C142        C498   1.516   1_554  S
C143        C341   1.483   1_545  S
O145        C148   1.267       .  A
O146        C148   1.281       .  A
O147       Fe695   2.054       .  S
O147        C702   1.269       .  A
C148        C197   1.501       .  S
O149        C154   1.277       .  A
O150       Fe694   2.002       .  S
O150        C712   1.255       .  A
C151        O153   1.275       .  A
C151        C325   1.491       .  S
C152        O710   1.255       .  A
C152        C514   1.445   1_545  S
O153       Fe695   2.091       .  S
C154        O701   1.256       .  A
C154        C181   1.480       .  S
Fe155       O171   2.145       .  S
Fe155       O161   2.047       .  S
Fe155       O168   2.096       .  S
Fe155       O160   2.157       .  S
Fe155       O166   1.939       .  S
Fe156       O159   2.012       .  S
Fe156       O163   2.039       .  S
Fe156       O727   2.020       .  S
Fe156       O732   2.043       .  S
Fe156       O166   1.947       .  S
Fe157       O175   2.076       .  S
Fe157       O169   2.093       .  S
Fe157       O158   2.042       .  S
Fe157       O722   2.092       .  S
Fe157       O166   1.950       .  S
O158        C165   1.271       .  A
O159        C173   1.254       .  A
O160        C165   1.295       .  A
O161        C164   1.262       .  A
O162       Fe717   2.087   1_554  S
O162        C174   1.278       .  A
O163        C176   1.267       .  A
C164        O169   1.270       .  A
C164        C277   1.482       .  S
C165        C434   1.517       .  S
O167       Fe716   2.023       .  S
O167        C730   1.254       .  A
O168        C170   1.272       .  A
C170        O727   1.254       .  A
C170        C178   1.473       .  S
O171        C176   1.292       .  A
O172       Fe716   2.044   1_554  S
O172        C174   1.268       .  A
C173        O175   1.269       .  A
C173        C450   1.454       .  S
C174        C290   1.475       .  S
C176        C210   1.514       .  S
C177        C178   1.404       .  A
C177        C182   1.410       .  A
C177        H184   1.084       .  S
C178        C739   1.419       .  A
C179        C180   1.412       .  A
C179        C738   1.416   1_554  A
C179        C186   1.517       .  S
C180        C181   1.406       .  A
C180        H185   1.083       .  S
C181        C742   1.415   1_554  A
C182        C741   1.417       .  A
C182        C183   1.518       .  S
C183        F187   1.384       .  S
C183        F188   1.383       .  S
C183        F189   1.382       .  S
C186        F190   1.381       .  S
C186        F191   1.383       .  S
C186        F192   1.385       .  S
C193        C194   1.417       .  A
C193        C198   1.409       .  A
C193        H200   1.081       .  S
C194        C195   1.422       .  A
C195        C196   1.413       .  A
C195        C202   1.519       .  S
C196        C197   1.411       .  A
C196        H201   1.083       .  S
C197        C198   1.417       .  A
C198        C199   1.521       .  S
C199        F203   1.385       .  S
C199        F204   1.381       .  S
C199        F205   1.382       .  S
C202        F206   1.383       .  S
C202        F207   1.383       .  S
C202        F208   1.385       .  S
C209        C210   1.404       .  A
C209        C214   1.416   1_455  A
C209        H216   1.082       .  S
C210        C211   1.434   1_455  A
C211       C1332   1.413       .  A
C211        C218   1.524       .  S
C212        C213   1.403       .  A
C212       C1331   1.413       .  A
C212        H217   1.082       .  S
C213       C1334   1.433       .  A
C214       C1333   1.434       .  A
C214        C215   1.523       .  S
C215        F219   1.385   1_655  S
C215        F221   1.384       .  S
C215       F1340   1.379       .  S
C218        F222   1.381       .  S
C218        F223   1.384   1_655  S
C218       F1344   1.385       .  S
F220       C1335   1.379       .  S
F224       C1338   1.385       .  S
C225        C226   1.402       .  A
C225        C230   1.409       .  A
C225        H232   1.083       .  S
C226        C227   1.414       .  A
C227        C228   1.408       .  A
C227        C234   1.519       .  S
C228        C229   1.407       .  A
C228        H233   1.083       .  S
C229        C230   1.421       .  A
C230        C231   1.520       .  S
C231        F235   1.385       .  S
C231        F236   1.382       .  S
C231        F237   1.384       .  S
C234        F238   1.383       .  S
C234        F239   1.382       .  S
C234        F240   1.384       .  S
C241        C242   1.418       .  A
C241        C246   1.422       .  A
C241        H248   1.081       .  S
C242        C243   1.415       .  A
C243        C244   1.416       .  A
C243        C250   1.521       .  S
C244        C245   1.424       .  A
C244        H249   1.080       .  S
C245        C246   1.420       .  A
C246        C247   1.518       .  S
C247        F251   1.384       .  S
C247        F252   1.383       .  S
C247        F253   1.384       .  S
C250        F254   1.383       .  S
C250        F255   1.382       .  S
C250        F256   1.385       .  S
C257        C258   1.405   1_655  A
C257       C1382   1.404       .  A
C257        H264   1.083       .  S
C258        C259   1.409       .  A
C259        C260   1.393       .  A
C259        C266   1.517       .  S
C260       C1381   1.406   1_455  A
C260        H265   1.082       .  S
C261        C262   1.425       .  A
C261       C1380   1.411       .  A
C262       C1377   1.400       .  A
C262        C263   1.523       .  S
C263        F267   1.376       .  S
C263        F268   1.383       .  S
C263        F269   1.384       .  S
C266        F270   1.381       .  S
C266        F271   1.384       .  S
C266        F272   1.383       .  S
C273        C274   1.395       .  A
C273        C278   1.398       .  A
C273        H280   1.084       .  S
C274        C275   1.423       .  A
C275        C276   1.413       .  A
C275        C282   1.517       .  S
C276        C277   1.401       .  A
C276        H281   1.083       .  S
C277        C278   1.423       .  A
C278        C279   1.517       .  S
C279        F283   1.385       .  S
C279        F284   1.380       .  S
C279        F285   1.376       .  S
C282        F286   1.382       .  S
C282        F287   1.383       .  S
C282        F288   1.384       .  S
C289        C290   1.399       .  A
C289        C294   1.398       .  A
C289        H296   1.083       .  S
C290        C291   1.422       .  A
C291        C292   1.408       .  A
C291        C298   1.518       .  S
C292        C293   1.400       .  A
C292        H297   1.082       .  S
C293        C294   1.419       .  A
C294        C295   1.519       .  S
C295        F299   1.385       .  S
C295        F300   1.379       .  S
C295        F301   1.381       .  S
C298        F302   1.382       .  S
C298        F303   1.382       .  S
C298        F304   1.385       .  S
C305        C306   1.410       .  A
C305        C310   1.407       .  A
C305        H312   1.084       .  S
C306        C307   1.409       .  A
C307        C308   1.408       .  A
C307        C314   1.517       .  S
C308        C309   1.410       .  A
C308        H313   1.084       .  S
C309        C310   1.409       .  A
C310        C311   1.516       .  S
C311        F315   1.385       .  S
C311        F316   1.383       .  S
C311        F317   1.383       .  S
C314        F318   1.383       .  S
C314        F319   1.384       .  S
C314        F320   1.384       .  S
C321        C322   1.401       .  A
C321        C326   1.404       .  A
C321        H328   1.084   1_545  S
C322        C323   1.411       .  A
C323        C324   1.415       .  A
C323        C330   1.513       .  S
C324        C325   1.410       .  A
C324        H329   1.083       .  S
C325        C326   1.416       .  A
C326        C327   1.511       .  S
C327        F331   1.385       .  S
C327        F332   1.384       .  S
C327        F333   1.378   1_545  S
C330        F334   1.383       .  S
C330        F335   1.382       .  S
C330        F336   1.384       .  S
C337        C338   1.408       .  A
C337        C342   1.414       .  A
C337        H344   1.083       .  S
C338        C339   1.414       .  A
C339        C340   1.405       .  A
C339        C346   1.517       .  S
C340        C341   1.404       .  A
C340        H345   1.086   1_565  S
C341        C342   1.414       .  A
C342        C343   1.516       .  S
C343        F347   1.385       .  S
C343        F348   1.383       .  S
C343        F349   1.382       .  S
C346        F350   1.382   1_565  S
C346        F351   1.383       .  S
C346        F352   1.383       .  S
C353        C354   1.397       .  A
C353       C1478   1.412   1_455  A
C353        H360   1.082       .  S
C354        C355   1.437   1_565  A
C355        C356   1.414       .  A
C355        C362   1.523       .  S
C356       C1477   1.398   1_455  A
C356        H361   1.082       .  S
C357        C358   1.439   1_545  A
C357       C1476   1.396       .  A
C358       C1473   1.410       .  A
C358        C359   1.524       .  S
C359        F363   1.385       .  S
C359        F364   1.379       .  S
C359        F365   1.382       .  S
C362        F366   1.382       .  S
C362        F367   1.382       .  S
C362        F368   1.385       .  S
C369        C370   1.406   1_545  A
C369        C374   1.394   1_545  A
C369        H376   1.086       .  S
C370        C371   1.405       .  A
C371        C372   1.394       .  A
C371        C378   1.518       .  S
C372        C373   1.407       .  A
C372        H377   1.087       .  S
C373        C374   1.407       .  A
C374        C375   1.518   1_565  S
C375        F379   1.381   1_545  S
C375        F380   1.382       .  S
C375        F381   1.383       .  S
C378        F382   1.383       .  S
C378        F383   1.382   1_565  S
C378        F384   1.382       .  S
C385        C386   1.407       .  A
C385       C1510   1.414       .  A
C385        H392   1.083       .  S
C386       C1507   1.439       .  A
C387        C388   1.415       .  A
C387       C1506   1.437   1_455  A
C387        C394   1.524       .  S
C388        C389   1.400       .  A
C388        H393   1.083       .  S
C389        C390   1.426   1_455  A
C390       C1505   1.412       .  A
C390       C1511   1.521       .  S
C391       C1510   1.521       .  S
C391        F395   1.385       .  S
C391       F1516   1.384       .  S
C391       F1517   1.382       .  S
C394        F398   1.384   1_455  S
C394        F400   1.385       .  S
C394       F1519   1.381   1_455  S
F396       C1511   1.384   1_455  S
F397       C1511   1.381       .  S
F399       C1514   1.381       .  S
C401        C402   1.401       .  A
C401        C406   1.401       .  A
C401        H408   1.082       .  S
C402        C403   1.435       .  A
C403        C404   1.415       .  A
C403        C410   1.521       .  S
C404        C405   1.398       .  A
C404        H409   1.082       .  S
C405        C406   1.420       .  A
C406        C407   1.517       .  S
C407        F411   1.381       .  S
C407        F412   1.376       .  S
C407        F413   1.385       .  S
C410        F414   1.383       .  S
C410        F415   1.382       .  S
C410        F416   1.385       .  S
C417        C418   1.410       .  A
C417        C422   1.416       .  A
C417        H424   1.083       .  S
C418        C419   1.410       .  A
C419        C420   1.402       .  A
C419        C426   1.520       .  S
C420        C421   1.413       .  A
C420        H425   1.083       .  S
C421        C422   1.416       .  A
C422        C423   1.517       .  S
C423        F427   1.385       .  S
C423        F428   1.382       .  S
C423        F429   1.382       .  S
C426        F430   1.384       .  S
C426        F431   1.383       .  S
C426        F432   1.385       .  S
C433        C434   1.421       .  A
C433        C998   1.419       .  A
C433        H440   1.082       .  S
C434        C435   1.415       .  A
C435        C436   1.417       .  A
C435        C442   1.518       .  S
C436        C997   1.420       .  A
C436        H441   1.082       .  S
C437        C438   1.415   1_556  A
C437        C996   1.422       .  A
C438        C993   1.420   1_554  A
C438        C439   1.518       .  S
C439        F445   1.383       .  S
C439       F1003   1.384       .  S
C439       F1004   1.384   1_554  S
C442        F446   1.382       .  S
C442        F448   1.384       .  S
C442       F1007   1.383       .  S
F443        C999   1.385       .  S
F444        C999   1.384       .  S
F447       C1002   1.384   1_554  S
C449       C1010   1.408   1_554  A
C449       C1574   1.397   1_455  A
C449        H456   1.083       .  S
C450        C451   1.407   1_455  A
C450       C1009   1.409       .  A
C451       C1572   1.400       .  A
C451        C458   1.518   1_655  S
C452       C1571   1.397       .  A
C452       C1013   1.408       .  A
C452        H457   1.085       .  S
C453        C454   1.407   1_556  A
C453       C1012   1.411       .  A
C454       C1569   1.398       .  A
C454        C455   1.520       .  S
C455        F460   1.383       .  S
C455        F461   1.383       .  S
C455       F1579   1.385       .  S
C458        F462   1.382       .  S
C458        F463   1.383       .  S
C458       F1584   1.381   1_455  S
F459       C1575   1.385   1_455  S
F464       C1578   1.381       .  S
C465        C466   1.415       .  A
C465        C470   1.418       .  A
C465        H472   1.081       .  S
C466        C467   1.423       .  A
C467        C468   1.410       .  A
C467        C474   1.523       .  S
C468        C469   1.414       .  A
C468        H473   1.081       .  S
C469        C470   1.422       .  A
C470        C471   1.520       .  S
C471        F475   1.385       .  S
C471        F476   1.383       .  S
C471        F477   1.383       .  S
C474        F478   1.383       .  S
C474        F479   1.383       .  S
C474        F480   1.385       .  S
C481        C482   1.407       .  A
C481        C486   1.407       .  A
C481        H488   1.082       .  S
C482       C1043   1.422       .  A
C483        C484   1.410       .  A
C483       C1042   1.421   1_554  A
C483        C490   1.521       .  S
C484        C485   1.404       .  A
C484        H489   1.084       .  S
C485       C1046   1.415   1_554  A
C486       C1045   1.415       .  A
C486        C487   1.519       .  S
C487        F491   1.385       .  S
C487        F492   1.383       .  S
C487        F493   1.382       .  S
C490        F494   1.382       .  S
C490        F495   1.383       .  S
C490        F496   1.385       .  S
C497        C498   1.411   1_554  A
C497       C1622   1.417       .  A
C497        H504   1.084       .  S
C498       C1059   1.433   1_545  A
C499        C500   1.414   1_455  A
C499       C1058   1.436   1_565  A
C499        C506   1.514       .  S
C500       C1621   1.397       .  A
C500       H1625   1.085       .  S
C501       C1620   1.400       .  A
C501       C1062   1.423   1_565  A
C502       C1617   1.417       .  A
C502       C1061   1.424   1_544  A
C502        C503   1.521       .  S
C503        F507   1.384       .  S
C503        F508   1.383   1_545  S
C503        F509   1.382       .  S
H505       C1620   1.084       .  S
C506        F510   1.383       .  S
C506        F511   1.381   1_565  S
C506        F512   1.385       .  S
C513        C518   1.397       .  A
C513       C1074   1.397       .  A
C513        H520   1.085       .  S
C514        C515   1.412   1_565  A
C514       C1073   1.397   1_554  A
C515        C516   1.395       .  A
C515        C522   1.518       .  S
C516       C1077   1.403   1_544  A
C516        H521   1.085       .  S
C517        C518   1.416       .  A
C517       C1076   1.402   1_565  A
C518        C519   1.515       .  S
C519        F523   1.384       .  S
C519        F524   1.379       .  S
C519        F525   1.384       .  S
C522        F526   1.384       .  S
C522        F527   1.382       .  S
C522        F528   1.383       .  S
C529        C530   1.404       .  A
C529        C534   1.399   1_565  A
C529        H536   1.082       .  S
C530        C531   1.431       .  A
C531        C532   1.413       .  A
C531        C538   1.521       .  S
C532        C533   1.399       .  A
C532        H537   1.083       .  S
C533        C534   1.419   1_565  A
C534        C535   1.522       .  S
C535        F539   1.385       .  S
C535        F540   1.379       .  S
C535        F541   1.382       .  S
C538        F542   1.383       .  S
C538        F543   1.380       .  S
C538        F544   1.385       .  S
C545        C546   1.414       .  A
C545        C550   1.401       .  A
C545        H552   1.072   1_545  S
C546        C547   1.421       .  A
C547        C548   1.414       .  A
C547        C554   1.518       .  S
C548        C549   1.407       .  A
C548        H553   1.072       .  S
C549        C550   1.407       .  A
C550        C551   1.518       .  S
C551        F555   1.383   1_545  S
C551        F556   1.384       .  S
C551        F557   1.382   1_545  S
C554        F558   1.385       .  S
C554        F559   1.383       .  S
C554        F560   1.382       .  S
Fe561       O577   2.076       .  S
Fe561       O567   2.068       .  S
Fe561       O574   2.132       .  S
Fe561       O566   2.107       .  S
Fe561       O572   1.938       .  S
Fe562       O565   2.011       .  S
Fe562       O569   2.096       .  S
Fe562       O572   1.937       .  S
Fe563       O581   2.085       .  S
Fe563       O575   2.069   1_565  S
Fe563       O564   2.071       .  S
Fe563       O572   1.930       .  S
O564        C571   1.271       .  A
O565        C579   1.258       .  A
O566        C571   1.288       .  A
O567        C570   1.272       .  A
O568        C580   1.275       .  A
O569        C582   1.275       .  A
C570        O575   1.272   1_565  A
C570       C1106   1.490   1_565  S
C571       C1061   1.499       .  S
O574        C576   1.280       .  A
C576       C1042   1.482       .  S
O577        C582   1.271       .  A
O578        C580   1.270       .  A
C579        O581   1.274       .  A
C579       C1077   1.463       .  S
C580       C1090   1.504       .  S
C582       C1026   1.515       .  S
Fe583       O599   2.094       .  S
Fe583       O589   2.159       .  S
Fe583       O596   2.147       .  S
Fe583       O588   2.045       .  S
Fe583       O594   1.949       .  S
Fe584       O595   2.040       .  S
Fe584       O594   1.948       .  S
Fe585       O590   2.069       .  S
Fe585       O586   2.096       .  S
Fe585       O594   1.949       .  S
O586        C593   1.271       .  A
O587        C601   1.269       .  A
O588        C593   1.262       .  A
O589        C592   1.295       .  A
O590        C602   1.268       .  A
C592        C997   1.516       .  S
C593        C965   1.481       .  S
O595        C598   1.266       .  A
O596        C598   1.292       .  A
C598        C946   1.517       .  S
O599        C604   1.272       .  A
C601        O603   1.279       .  A
C601        C978   1.473       .  S
C602       C1013   1.450       .  S
C604       C1045   1.476       .  S
Fe605       O621   2.140       .  S
Fe605       O611   2.047       .  S
Fe605       O618   2.097       .  S
Fe605       O610   2.150       .  S
Fe605       O616   1.943       .  S
Fe606       O609   2.013       .  S
Fe606       O613   2.045       .  S
Fe606       O617   2.008       .  S
Fe606       O622   2.047       .  S
Fe606       O616   1.946       .  S
Fe607       O625   2.062   1_565  S
Fe607       O612   2.098       .  S
Fe607       O619   2.094   1_565  S
Fe607       O608   2.035       .  S
Fe607       O616   1.944       .  S
O608        C615   1.266       .  A
O609        C623   1.255       .  A
O610        C615   1.294       .  A
O611        C614   1.263       .  A
O612        C624   1.279       .  A
O613        C626   1.273       .  A
C614        O619   1.270   1_565  A
C614        C882   1.477   1_565  S
C615        C914   1.509       .  S
O617        C620   1.255       .  A
O618        C620   1.273       .  A
C620        C869   1.484       .  S
O621        C626   1.288       .  A
O622        C624   1.270       .  A
C623        O625   1.266   1_565  A
C623        C933   1.444   1_565  S
C624        C898   1.471       .  S
C626       C1029   1.518       .  S
Fe627       O643   2.090       .  S
Fe627       O633   2.143       .  S
Fe627       O640   2.137       .  S
Fe627       O632   2.045       .  S
Fe627       O638   1.949       .  S
Fe628       O631   2.060       .  S
Fe628       O635   2.023       .  S
Fe628       O639   2.047       .  S
Fe628       O644   2.008       .  S
Fe628       O638   1.953       .  S
Fe629       O647   2.079       .  S
Fe629       O634   2.062       .  S
Fe629       O641   2.041       .  S
Fe629       O630   2.082       .  S
Fe629       O638   1.955       .  S
O630        C637   1.269       .  A
O631        C645   1.269       .  A
O632        C637   1.264       .  A
O633        C636   1.290       .  A
O634        C646   1.267       .  A
O635        C648   1.259       .  A
C636        O641   1.269       .  A
C636        C802   1.509       .  S
C637        C853   1.474       .  S
O639        C642   1.266       .  A
O640        C642   1.286       .  A
C642        C949   1.510       .  S
O643        C648   1.273       .  A
O644        C646   1.259       .  A
C645        O647   1.274       .  A
C645        C834   1.484       .  S
C646        C818   1.446       .  S
C648        C866   1.486       .  S
Fe649       O665   2.106       .  S
Fe649       O655   2.049       .  S
Fe649       O662   2.119       .  S
Fe649       O654   2.128       .  S
Fe649       O660   1.939       .  S
Fe650       O653   2.017       .  S
Fe650       O657   2.078       .  S
Fe650       O661   2.021       .  S
Fe650       O666   2.065       .  S
Fe650       O660   1.938       .  S
Fe651       O669   2.082       .  S
Fe651       O656   2.074       .  S
Fe651       O663   2.085       .  S
Fe651       O652   2.049       .  S
Fe651       O660   1.942       .  S
O652        C659   1.270       .  A
O653        C667   1.260       .  A
O654        C659   1.291       .  A
O655        C658   1.268       .  A
O656        C668   1.275       .  A
O657        C670   1.265       .  A
C658        O663   1.276       .  A
C658        C981   1.487       .  S
C659        C805   1.523       .  S
O661        C664   1.257       .  A
O662        C664   1.279       .  A
C664        C789   1.481       .  S
O665        C670   1.279       .  A
O666        C668   1.265       .  A
C667        O669   1.269       .  A
C667        C821   1.479       .  S
C668        C962   1.499       .  S
C670        C773   1.516       .  S
Fe671       O687   2.086       .  S
Fe671       O677   2.152       .  S
Fe671       O684   2.138       .  S
Fe671       O676   2.034       .  S
Fe671       O682   1.945       .  S
Fe672       O675   2.052       .  S
Fe672       O679   2.026       .  S
Fe672       O683   2.046       .  S
Fe672       O688   2.015       .  S
Fe672       O682   1.940       .  S
Fe673       O691   2.100       .  S
Fe673       O678   2.049       .  S
Fe673       O685   2.019       .  S
Fe673       O674   2.111       .  S
Fe673       O682   1.943       .  S
O674        C681   1.274       .  A
O675        C689   1.271       .  A
O676        C681   1.259       .  A
O677        C680   1.293       .  A
O678        C690   1.265       .  A
O679        C692   1.258       .  A
C680        O685   1.259       .  A
C680        C917   1.505       .  S
C681       C1093   1.482       .  S
O683        C686   1.272       .  A
O684        C686   1.286       .  A
C686        C754   1.521       .  S
O687        C692   1.271       .  A
O688        C690   1.259       .  A
C689        O691   1.279       .  A
C689       C1109   1.475       .  S
C690        C930   1.440       .  S
C692        C786   1.467       .  S
Fe693       O709   2.106       .  S
Fe693       O699   2.143       .  S
Fe693       O706   2.128       .  S
Fe693       O698   2.046       .  S
Fe693       O704   1.966       .  S
Fe694       O705   2.058       .  S
Fe694       O704   1.967       .  S
Fe695       O700   2.062   1_545  S
Fe695       O696   2.077   1_545  S
Fe695       O704   1.965       .  S
O696        C703   1.268   1_565  A
O697        C711   1.270       .  A
O698        C703   1.265       .  A
O699        C702   1.290       .  A
O700        C712   1.266   1_565  A
C702       C1058   1.526       .  S
C703        C901   1.472   1_545  S
O705        C708   1.270       .  A
O706        C708   1.282       .  A
C708        C757   1.517       .  S
O709        C714   1.277       .  A
C711        O713   1.280       .  A
C711        C885   1.485       .  S
C712       C1074   1.443   1_545  S
C714        C741   1.476       .  S
Fe715       O731   2.157       .  S
Fe715       O721   2.056       .  S
Fe715       O728   2.109       .  S
Fe715       O720   2.167       .  S
Fe715       O726   1.937       .  S
Fe716       O719   2.019   1_556  S
Fe716       O723   2.044       .  S
Fe716       O726   1.950       .  S
Fe717       O735   2.066       .  S
Fe717       O729   2.086       .  S
Fe717       O718   2.039       .  S
Fe717       O726   1.949       .  S
O718        C725   1.270       .  A
O719        C733   1.256   1_554  A
O720        C725   1.298       .  A
O721        C724   1.264       .  A
O722        C734   1.279       .  A
O723        C736   1.268       .  A
C724        O729   1.269       .  A
C724        C837   1.484       .  S
C725        C994   1.521       .  S
O728        C730   1.274       .  A
C730        C738   1.480       .  S
O731        C736   1.295       .  A
O732        C734   1.268       .  A
C733        O735   1.266       .  A
C733       C1010   1.452       .  S
C734        C850   1.474       .  S
C736        C770   1.521       .  S
C737        C738   1.405       .  A
C737        C742   1.411       .  A
C737        H744   1.083       .  S
C739        C740   1.407       .  A
C739        C746   1.519       .  S
C740        C741   1.403       .  A
C740        H745   1.085       .  S
C742        C743   1.516       .  S
C743        F747   1.384       .  S
C743        F748   1.383       .  S
C743        F749   1.383       .  S
C746        F750   1.383       .  S
C746        F751   1.383       .  S
C746        F752   1.384       .  S
C753        C754   1.416       .  A
C753        C758   1.413       .  A
C753        H760   1.081       .  S
C754        C755   1.424       .  A
C755        C756   1.420       .  A
C755        C762   1.520       .  S
C756        C757   1.415       .  A
C756        H761   1.082       .  S
C757        C758   1.422       .  A
C758        C759   1.520       .  S
C759        F763   1.385       .  S
C759        F764   1.382       .  S
C759        F765   1.383       .  S
C762        F766   1.383       .  S
C762        F767   1.383       .  S
C762        F768   1.385       .  S
C769        C770   1.406       .  A
C769        C774   1.419   1_455  A
C769        H776   1.082       .  S
C770        C771   1.436   1_455  A
C771       C1892   1.415       .  A
C771        C778   1.524       .  S
C772       C1891   1.414       .  A
C772        C773   1.403       .  A
C772        H777   1.082       .  S
C773       C1894   1.433       .  A
C774       C1893   1.434       .  A
C774        C775   1.522       .  S
C775        F779   1.385   1_655  S
C775       F1900   1.379       .  S
C775        F781   1.384       .  S
C778        F782   1.380   1_655  S
C778        F783   1.384   1_655  S
C778       F1904   1.385       .  S
F780       C1895   1.379       .  S
F784       C1898   1.385       .  S
C785        C786   1.402       .  A
C785        C790   1.406       .  A
C785        H792   1.084       .  S
C786        C787   1.412       .  A
C787        C788   1.407       .  A
C787        C794   1.518       .  S
C788        C789   1.407       .  A
C788        H793   1.083       .  S
C789        C790   1.419       .  A
C790        C791   1.519       .  S
C791        F795   1.385       .  S
C791        F796   1.382       .  S
C791        F797   1.383       .  S
C794        F798   1.383       .  S
C794        F799   1.382       .  S
C794        F800   1.385       .  S
C801        C802   1.418       .  A
C801        C806   1.420       .  A
C801        H808   1.082       .  S
C802        C803   1.411       .  A
C803        C804   1.413       .  A
C803        C810   1.520       .  S
C804        C805   1.425       .  A
C804        H809   1.081       .  S
C805        C806   1.419       .  A
C806        C807   1.518       .  S
C807        F811   1.385       .  S
C807        F812   1.383       .  S
C807        F813   1.383       .  S
C810        F814   1.384       .  S
C810        F815   1.382       .  S
C810        F816   1.385       .  S
C817        C818   1.402   1_655  A
C817       C1942   1.399       .  A
C817        H824   1.085       .  S
C818        C819   1.406       .  A
C819        C820   1.394       .  A
C819        C826   1.518       .  S
C820       C1941   1.409   1_455  A
C820        H825   1.081       .  S
C821       C1940   1.411       .  A
C821        C822   1.424       .  A
C822       C1937   1.400       .  A
C822        C823   1.523       .  S
C823        F827   1.376       .  S
C823        F828   1.383       .  S
C823        F829   1.383       .  S
C826        F830   1.383       .  S
C826        F831   1.385       .  S
C826        F832   1.380       .  S
C833        C834   1.398       .  A
C833        C838   1.399       .  A
C833        H840   1.083       .  S
C834        C835   1.423       .  A
C835        C836   1.415       .  A
C835        C842   1.517       .  S
C836        C837   1.403       .  A
C836        H841   1.082       .  S
C837        C838   1.421       .  A
C838        C839   1.517       .  S
C839        F843   1.385       .  S
C839        F844   1.381       .  S
C839        F845   1.376       .  S
C842        F846   1.382       .  S
C842        F847   1.383       .  S
C842        F848   1.385       .  S
C849        C850   1.398       .  A
C849        C854   1.399       .  A
C849        H856   1.083       .  S
C850        C851   1.422       .  A
C851        C852   1.408       .  A
C851        C858   1.519       .  S
C852        C853   1.399       .  A
C852        H857   1.082       .  S
C853        C854   1.419       .  A
C854        C855   1.518       .  S
C855        F859   1.385       .  S
C855        F860   1.378       .  S
C855        F861   1.381       .  S
C858        F862   1.382       .  S
C858        F863   1.380       .  S
C858        F864   1.385       .  S
C865        C866   1.416       .  A
C865        C870   1.406       .  A
C865        H872   1.083       .  S
C866        C867   1.411       .  A
C867        C868   1.405       .  A
C867        C874   1.520       .  S
C868        C869   1.415       .  A
C868        H873   1.083       .  S
C869        C870   1.409       .  A
C870        C871   1.518       .  S
C871        F875   1.385       .  S
C871        F876   1.383       .  S
C871        F877   1.383       .  S
C874        F878   1.383       .  S
C874        F879   1.383       .  S
C874        F880   1.385       .  S
C881        C882   1.405       .  A
C881        C886   1.407       .  A
C881        H888   1.085       .  S
C882        C883   1.409       .  A
C883        C884   1.412       .  A
C883        C890   1.515       .  S
C884        C885   1.410       .  A
C884        H889   1.083       .  S
C885        C886   1.415       .  A
C886        C887   1.514       .  S
C887        F891   1.384       .  S
C887        F892   1.382       .  S
C887        F893   1.382       .  S
C890        F894   1.383       .  S
C890        F895   1.383       .  S
C890        F896   1.384       .  S
C897        C898   1.409       .  A
C897        C902   1.410       .  A
C897        H904   1.084       .  S
C898        C899   1.412       .  A
C899        C900   1.400       .  A
C899        C906   1.516       .  S
C900        C901   1.403       .  A
C900        H905   1.087   1_565  S
C901        C902   1.411       .  A
C902        C903   1.517       .  S
C903        F907   1.385       .  S
C903        F908   1.383       .  S
C903        F909   1.383       .  S
C906        F910   1.383   1_565  S
C906        F911   1.383       .  S
C906        F912   1.382       .  S
C913        C914   1.397       .  A
C913       C2038   1.414   1_455  A
C913        H920   1.082       .  S
C914        C915   1.437   1_565  A
C915        C916   1.415       .  A
C915        C922   1.523       .  S
C916       C2037   1.399   1_455  A
C916        H921   1.083       .  S
C917       C2036   1.396       .  A
C917        C918   1.439   1_545  A
C918       C2033   1.412       .  A
C918        C919   1.525       .  S
C919        F923   1.385       .  S
C919        F924   1.382       .  S
C919        F925   1.380       .  S
C922        F926   1.383       .  S
C922        F927   1.381       .  S
C922        F928   1.385       .  S
C929        C930   1.405       .  A
C929        C934   1.395       .  A
C929        H936   1.084       .  S
C930        C931   1.404       .  A
C931        C932   1.395       .  A
C931        C938   1.518       .  S
C932        C933   1.407       .  A
C932        H937   1.084   1_545  S
C933        C934   1.407       .  A
C934        C935   1.518       .  S
C935        F939   1.380   1_545  S
C935        F940   1.382       .  S
C935        F941   1.382       .  S
C938        F942   1.383   1_545  S
C938        F943   1.382       .  S
C938        F944   1.381   1_545  S
C945        C946   1.405       .  A
C945       C2070   1.414       .  A
C945        H952   1.083       .  S
C946       C2067   1.438       .  A
C947       C2066   1.436   1_455  A
C947        C948   1.416       .  A
C947        C954   1.522       .  S
C948        C949   1.402       .  A
C948        H953   1.083       .  S
C949        C950   1.427   1_455  A
C950       C2065   1.416       .  A
C950       C2071   1.520       .  S
C951       C2070   1.521       .  S
C951        F955   1.385       .  S
C951       F2076   1.384       .  S
C951       F2077   1.381       .  S
C954        F958   1.384   1_455  S
C954       F2079   1.382   1_455  S
C954        F960   1.385       .  S
F956       C2071   1.384   1_455  S
F957       C2071   1.381       .  S
F959       C2074   1.381       .  S
C961        C962   1.403       .  A
C961        C966   1.403       .  A
C961        H968   1.082       .  S
C962        C963   1.434       .  A
C963        C964   1.413       .  A
C963        C970   1.522       .  S
C964        C965   1.397       .  A
C964        H969   1.083       .  S
C965        C966   1.418       .  A
C966        C967   1.517       .  S
C967        F971   1.381       .  S
C967        F972   1.379       .  S
C967        F973   1.385       .  S
C970        F974   1.383       .  S
C970        F975   1.382       .  S
C970        F976   1.385       .  S
C977        C978   1.407       .  A
C977        C982   1.411       .  A
C977        H984   1.083       .  S
C978        C979   1.408       .  A
C979        C980   1.403       .  A
C979        C986   1.519       .  S
C980        C981   1.412       .  A
C980        H985   1.083       .  S
C981        C982   1.414       .  A
C982        C983   1.515       .  S
C983        F987   1.384       .  S
C983        F988   1.383       .  S
C983        F989   1.383       .  S
C986        F990   1.384       .  S
C986        F991   1.382       .  S
C986        F992   1.385       .  S
C993        C994   1.423       .  A
C993       H1000   1.081       .  S
C994        C995   1.414       .  A
C995        C996   1.419       .  A
C995       C1002   1.517       .  S
C996       H1001   1.082       .  S
C997        C998   1.415       .  A
C998        C999   1.518       .  S
C999       F1005   1.382       .  S
C1002      F1006   1.382       .  S
C1002      F1008   1.384       .  S
C1009      C2134   1.398   1_455  A
C1009      H1016   1.084       .  S
C1010      C1011   1.407       .  A
C1011      C2132   1.398   1_455  A
C1011      C1018   1.520       .  S
C1012      C2131   1.398       .  A
C1012      H1017   1.084       .  S
C1013      C1014   1.406       .  A
C1014      C2129   1.398       .  A
C1014      C1015   1.520       .  S
C1015      F2139   1.385       .  S
C1015      F1020   1.383       .  S
C1015      F1021   1.383       .  S
C1018      F1022   1.382       .  S
C1018      F1023   1.383       .  S
C1018      F2144   1.382   1_455  S
F1019      C2135   1.385   1_455  S
F1024      C2138   1.379       .  S
C1025      C1026   1.414       .  A
C1025      C1030   1.420       .  A
C1025      H1032   1.082       .  S
C1026      C1027   1.425       .  A
C1027      C1028   1.411       .  A
C1027      C1034   1.524       .  S
C1028      C1029   1.413       .  A
C1028      H1033   1.081       .  S
C1029      C1030   1.422       .  A
C1030      C1031   1.519       .  S
C1031      F1035   1.385       .  S
C1031      F1036   1.383       .  S
C1031      F1037   1.383       .  S
C1034      F1038   1.384       .  S
C1034      F1039   1.383       .  S
C1034      F1040   1.385       .  S
C1041      C1042   1.404       .  A
C1041      C1046   1.408       .  A
C1041      H1048   1.084       .  S
C1043      C1044   1.411       .  A
C1043      C1050   1.520       .  S
C1044      C1045   1.403       .  A
C1044      H1049   1.083       .  S
C1046      C1047   1.518       .  S
C1047      F1051   1.385       .  S
C1047      F1052   1.383       .  S
C1047      F1053   1.382       .  S
C1050      F1054   1.382       .  S
C1050      F1055   1.383       .  S
C1050      F1056   1.385       .  S
C1057      C1058   1.411       .  A
C1057      C2182   1.421       .  A
C1057      H1064   1.083       .  S
C1059      C1060   1.414   1_455  A
C1059      C1066   1.519       .  S
C1060      C2181   1.400       .  A
C1060      H2185   1.085       .  S
C1061      C2180   1.400       .  A
C1062      C2177   1.416       .  A
C1062      C1063   1.521       .  S
C1063      F1067   1.383       .  S
C1063      F1068   1.384   1_545  S
C1063      F1069   1.381       .  S
H1065      C2180   1.085       .  S
C1066      F1070   1.382       .  S
C1066      F1071   1.381   1_565  S
C1066      F1072   1.385       .  S
C1073      C1078   1.399       .  A
C1073      H1080   1.086       .  S
C1074      C1075   1.412   1_565  A
C1075      C1076   1.395       .  A
C1075      C1082   1.517       .  S
C1076      H1081   1.085       .  S
C1077      C1078   1.418       .  A
C1078      C1079   1.515       .  S
C1079      F1083   1.384       .  S
C1079      F1084   1.380       .  S
C1079      F1085   1.383       .  S
C1082      F1086   1.384       .  S
C1082      F1087   1.381       .  S
C1082      F1088   1.383       .  S
C1089      C1090   1.407       .  A
C1089      C1094   1.404   1_565  A
C1089      H1096   1.082   1_565  S
C1090      C1091   1.433       .  A
C1091      C1092   1.415       .  A
C1091      C1098   1.521       .  S
C1092      C1093   1.398   1_565  A
C1092      H1097   1.083       .  S
C1093      C1094   1.418       .  A
C1094      C1095   1.521       .  S
C1095      F1099   1.385       .  S
C1095      F1100   1.381       .  S
C1095      F1101   1.382       .  S
C1098      F1102   1.382       .  S
C1098      F1103   1.381       .  S
C1098      F1104   1.385       .  S
C1105      C1106   1.408       .  A
C1105      C1110   1.399       .  A
C1105      H1112   1.079   1_545  S
C1106      C1107   1.419       .  A
C1107      C1108   1.414       .  A
C1107      C1114   1.518       .  S
C1108      C1109   1.408       .  A
C1108      H1113   1.077       .  S
C1109      C1110   1.411       .  A
C1110      C1111   1.515       .  S
C1111      F1115   1.383       .  S
C1111      F1116   1.382       .  S
C1111      F1117   1.383   1_545  S
C1114      F1118   1.384       .  S
C1114      F1119   1.384       .  S
C1114      F1120   1.382       .  S
Fe1121     O1137   2.082       .  S
Fe1121     O1127   2.066       .  S
Fe1121     O1134   2.128       .  S
Fe1121     O1126   2.111       .  S
Fe1121     O1132   1.933       .  S
Fe1122     O1125   2.005       .  S
Fe1122     O1129   2.092       .  S
Fe1122     O1693   2.020       .  S
Fe1122     O1698   2.096       .  S
Fe1122     O1132   1.939       .  S
Fe1123     O1141   2.096       .  S
Fe1123     O1688   2.052       .  S
Fe1123     O1135   2.082   1_565  S
Fe1123     O1124   2.072       .  S
Fe1123     O1132   1.940       .  S
O1124      C1131   1.271       .  A
O1125      C1139   1.253       .  A
O1126      C1131   1.290       .  A
O1127      C1130   1.272       .  A
O1128     Fe1683   2.070   1_554  S
O1128      C1140   1.275       .  A
O1129      C1142   1.274       .  A
C1130      O1135   1.275   1_565  A
C1130      C1666   1.495   1_565  S
C1131      C1621   1.501       .  S
O1133     Fe1682   2.022   1_554  S
O1133      C1696   1.257   1_554  A
O1134      C1136   1.282       .  A
C1136      O1693   1.258       .  A
C1136      C1602   1.490       .  S
O1137      C1142   1.272       .  A
O1138     Fe1682   2.084   1_554  S
O1138      C1140   1.270       .  A
C1139      O1141   1.273       .  A
C1139      C1637   1.465       .  S
C1140      C1650   1.502       .  S
C1142      C1586   1.515       .  S
Fe1143     O1159   2.100       .  S
Fe1143     O1149   2.163       .  S
Fe1143     O1156   2.150       .  S
Fe1143     O1148   2.043       .  S
Fe1143     O1154   1.940       .  S
Fe1144     O1707   2.040       .  S
Fe1144     O1711   2.015       .  S
Fe1144     O1155   2.036   1_556  S
Fe1144     O1720   2.017       .  S
Fe1144     O1154   1.943   1_556  S
Fe1145     O1723   2.099       .  S
Fe1145     O1150   2.068   1_556  S
Fe1145     O1717   2.036       .  S
Fe1145     O1146   2.100   1_556  S
Fe1145     O1154   1.946   1_556  S
O1146      C1153   1.273       .  A
O1147     Fe1704   2.048       .  S
O1147      C1161   1.271       .  A
O1148      C1153   1.262       .  A
O1149      C1152   1.296       .  A
O1150      C1162   1.267   1_554  A
O1151     Fe1704   2.018       .  S
O1151      C1724   1.255       .  A
C1152      O1717   1.269   1_554  A
C1152      C1557   1.514   1_554  S
C1153      C1525   1.481       .  S
O1155      C1158   1.267       .  A
O1156      C1158   1.293       .  A
O1157     Fe1705   2.044       .  S
O1157      C1712   1.271       .  A
C1158      C1506   1.513       .  S
O1159      C1164   1.274       .  A
O1160     Fe1704   2.015       .  S
O1160      C1722   1.256       .  A
C1161      O1163   1.279       .  A
C1161      C1538   1.476       .  S
C1162      O1720   1.255       .  A
C1162      C1573   1.451       .  S
O1163     Fe1705   2.102       .  S
C1164      O1711   1.253   1_554  A
C1164      C1605   1.476   1_554  S
Fe1165     O1181   2.129       .  S
Fe1165     O1171   2.048       .  S
Fe1165     O1178   2.100       .  S
Fe1165     O1170   2.147       .  S
Fe1165     O1176   1.944       .  S
Fe1166     O1169   2.016       .  S
Fe1166     O1173   2.056       .  S
Fe1166     O1177   2.009       .  S
Fe1166     O1182   2.052       .  S
Fe1166     O1176   1.945       .  S
Fe1167     O1185   2.047   1_565  S
Fe1167     O1172   2.090       .  S
Fe1167     O1179   2.077   1_565  S
Fe1167     O1168   2.027       .  S
Fe1167     O1176   1.946       .  S
O1168      C1175   1.264       .  A
O1169      C1183   1.255       .  A
O1170      C1175   1.293       .  A
O1171      C1174   1.263       .  A
O1172      C1184   1.278       .  A
O1173      C1186   1.275       .  A
C1174      O1179   1.267   1_565  A
C1174      C1442   1.470   1_565  S
C1175      C1474   1.498       .  S
O1177      C1180   1.255       .  A
O1178      C1180   1.274       .  A
C1180      C1429   1.485       .  S
O1181      C1186   1.285       .  A
O1182      C1184   1.272       .  A
C1183      O1185   1.262   1_565  A
C1183      C1493   1.438       .  S
C1184      C1458   1.472       .  S
C1186      C1589   1.517       .  S
Fe1187     O1203   2.094       .  S
Fe1187     O1193   2.153       .  S
Fe1187     O1200   2.140       .  S
Fe1187     O1192   2.049       .  S
Fe1187     O1198   1.945       .  S
Fe1188     O1191   2.049       .  S
Fe1188     O1195   2.027       .  S
Fe1188     O1199   2.034       .  S
Fe1188     O1204   2.011       .  S
Fe1188     O1198   1.951       .  S
Fe1189     O1207   2.084       .  S
Fe1189     O1194   2.058       .  S
Fe1189     O1201   2.046       .  S
Fe1189     O1190   2.079       .  S
Fe1189     O1198   1.956       .  S
O1190      C1197   1.268       .  A
O1191      C1205   1.267       .  A
O1192      C1197   1.265       .  A
O1193      C1196   1.292       .  A
O1194      C1206   1.266       .  A
O1195      C1208   1.260       .  A
C1196      O1201   1.270       .  A
C1196      C1362   1.518       .  S
C1197      C1413   1.475       .  S
O1199      C1202   1.263       .  A
O1200      C1202   1.287       .  A
C1202      C1509   1.505       .  S
O1203      C1208   1.275       .  A
O1204      C1206   1.259       .  A
C1205      O1207   1.275       .  A
C1205      C1394   1.477       .  S
C1206      C1378   1.447       .  S
C1208      C1426   1.490       .  S
Fe1209     O1225   2.112       .  S
Fe1209     O1215   2.051       .  S
Fe1209     O1222   2.137       .  S
Fe1209     O1214   2.144       .  S
Fe1209     O1220   1.939       .  S
Fe1210     O1213   2.019       .  S
Fe1210     O1217   2.068       .  S
Fe1210     O1221   2.019       .  S
Fe1210     O1226   2.067       .  S
Fe1210     O1220   1.937       .  S
Fe1211     O1229   2.084       .  S
Fe1211     O1216   2.076       .  S
Fe1211     O1223   2.086       .  S
Fe1211     O1212   2.048       .  S
Fe1211     O1220   1.948       .  S
O1212      C1219   1.269       .  A
O1213      C1227   1.259       .  A
O1214      C1219   1.295       .  A
O1215      C1218   1.270       .  A
O1216      C1228   1.276       .  A
O1217      C1230   1.261       .  A
C1218      O1223   1.277       .  A
C1218      C1541   1.487       .  S
C1219      C1365   1.533       .  S
O1221      C1224   1.259       .  A
O1222      C1224   1.285       .  A
C1224      C1349   1.501       .  S
O1225      C1230   1.278       .  A
O1226      C1228   1.265       .  A
C1227      O1229   1.268       .  A
C1227      C1381   1.476       .  S
C1228      C1522   1.501       .  S
C1230      C1333   1.513       .  S
Fe1231     O1247   2.095       .  S
Fe1231     O1237   2.155       .  S
Fe1231     O1244   2.134       .  S
Fe1231     O1236   2.043       .  S
Fe1231     O1242   1.945       .  S
Fe1232     O1235   2.050       .  S
Fe1232     O1239   2.025       .  S
Fe1232     O1243   2.044       .  S
Fe1232     O1248   2.015       .  S
Fe1232     O1242   1.945       .  S
Fe1233     O1251   2.104       .  S
Fe1233     O1238   2.047       .  S
Fe1233     O1245   2.027       .  S
Fe1233     O1234   2.105   1_545  S
Fe1233     O1242   1.947       .  S
O1234      C1241   1.272   1_565  A
O1235      C1249   1.271       .  A
O1236      C1241   1.262       .  A
O1237      C1240   1.294       .  A
O1238      C1250   1.263       .  A
O1239      C1252   1.257       .  A
C1240      O1245   1.262       .  A
C1240      C1477   1.509       .  S
C1241      C1653   1.481   1_545  S
O1243      C1246   1.271       .  A
O1244      C1246   1.286       .  A
C1246      C1314   1.518       .  S
O1247      C1252   1.274       .  A
O1248      C1250   1.258       .  A
C1249      O1251   1.279       .  A
C1249      C1669   1.477       .  S
C1250      C1490   1.437       .  S
C1252      C1346   1.478       .  S
Fe1253     O1269   2.100       .  S
Fe1253     O1259   2.134       .  S
Fe1253     O1266   2.133       .  S
Fe1253     O1258   2.047       .  S
Fe1253     O1264   1.958       .  S
Fe1254     O1817   2.056   1_554  S
Fe1254     O1821   2.027       .  S
Fe1254     O1265   2.038       .  S
Fe1254     O1830   2.009       .  S
Fe1254     O1264   1.955       .  S
Fe1255     O1833   2.101   1_554  S
Fe1255     O1260   2.060   1_545  S
Fe1255     O1827   2.052   1_554  S
Fe1255     O1256   2.082   1_545  S
Fe1255     O1264   1.962       .  S
O1256      C1263   1.269   1_565  A
O1257     Fe1814   2.054       .  S
O1257      C1271   1.270       .  A
O1258      C1263   1.266       .  A
O1259      C1262   1.289       .  A
O1260      C1272   1.266   1_565  A
O1261     Fe1814   2.032       .  S
O1261      C1834   1.260       .  A
C1262      O1827   1.270   1_554  A
C1262      C1618   1.517       .  S
C1263      C1461   1.474   1_545  S
O1265      C1268   1.267       .  A
O1266      C1268   1.283       .  A
O1267     Fe1815   2.046       .  S
O1267      C1822   1.265       .  A
C1268      C1317   1.512       .  S
O1269      C1274   1.275       .  A
O1270     Fe1814   2.014       .  S
O1270      C1832   1.259       .  A
C1271      O1273   1.276       .  A
C1271      C1445   1.475       .  S
C1272      O1830   1.258       .  A
C1272      C1634   1.443   1_545  S
O1273     Fe1815   2.096       .  S
C1274      O1821   1.259       .  A
C1274      C1301   1.476       .  S
Fe1275     O1291   2.154       .  S
Fe1275     O1281   2.046       .  S
Fe1275     O1288   2.090       .  S
Fe1275     O1280   2.159       .  S
Fe1275     O1286   1.943       .  S
Fe1276     O1279   2.011       .  S
Fe1276     O1283   2.036       .  S
Fe1276     O1847   2.019       .  S
Fe1276     O1852   2.051       .  S
Fe1276     O1286   1.950       .  S
Fe1277     O1295   2.070       .  S
Fe1277     O1842   2.087       .  S
Fe1277     O1289   2.089       .  S
Fe1277     O1278   2.045       .  S
Fe1277     O1286   1.947       .  S
O1278      C1285   1.271       .  A
O1279      C1293   1.254       .  A
O1280      C1285   1.294       .  A
O1281      C1284   1.262       .  A
O1282     Fe1837   2.085   1_554  S
O1282      C1294   1.278       .  A
O1283      C1296   1.266       .  A
C1284      O1289   1.270       .  A
C1284      C1397   1.478       .  S
C1285      C1554   1.522       .  S
O1287     Fe1836   2.019       .  S
O1287      C1850   1.253       .  A
O1288      C1290   1.270       .  A
C1290      O1847   1.254       .  A
C1290      C1298   1.470       .  S
O1291      C1296   1.293       .  A
O1292     Fe1836   2.049   1_554  S
O1292      C1294   1.270       .  A
C1293      O1295   1.268       .  A
C1293      C1570   1.452       .  S
C1294      C1410   1.476       .  S
C1296      C1330   1.517       .  S
C1297      C1298   1.408       .  A
C1297      C1302   1.406       .  A
C1297      H1304   1.083       .  S
C1298      C1859   1.408       .  A
C1299      C1858   1.410   1_554  A
C1299      C1300   1.407       .  A
C1299      C1306   1.516       .  S
C1300      C1301   1.408       .  A
C1300      H1305   1.083       .  S
C1301      C1862   1.411   1_554  A
C1302      C1861   1.409       .  A
C1302      C1303   1.517       .  S
C1303      F1307   1.384       .  S
C1303      F1308   1.383       .  S
C1303      F1309   1.384       .  S
C1306      F1310   1.383       .  S
C1306      F1311   1.383       .  S
C1306      F1312   1.385       .  S
C1313      C1314   1.418       .  A
C1313      C1318   1.415       .  A
C1313      H1320   1.081       .  S
C1314      C1315   1.423       .  A
C1315      C1316   1.414       .  A
C1315      C1322   1.520       .  S
C1316      C1317   1.413       .  A
C1316      H1321   1.082       .  S
C1317      C1318   1.419       .  A
C1318      C1319   1.519       .  S
C1319      F1323   1.385       .  S
C1319      F1324   1.382       .  S
C1319      F1325   1.383       .  S
C1322      F1326   1.383       .  S
C1322      F1327   1.383       .  S
C1322      F1328   1.385       .  S
C1329      C1330   1.405       .  A
C1329      C1334   1.418       .  A
C1329      H1336   1.082       .  S
C1330      C1331   1.436       .  A
C1331      C1338   1.525       .  S
C1332      C1333   1.403       .  A
C1332      H1337   1.083       .  S
C1334      C1335   1.521       .  S
C1335      F1339   1.385       .  S
C1335      F1341   1.384       .  S
C1338      F1342   1.380       .  S
C1338      F1343   1.384       .  S
C1345      C1346   1.398       .  A
C1345      C1350   1.411       .  A
C1345      H1352   1.083       .  S
C1346      C1347   1.414       .  A
C1347      C1348   1.409       .  A
C1347      C1354   1.518       .  S
C1348      C1349   1.409       .  A
C1348      H1353   1.083       .  S
C1349      C1350   1.431       .  A
C1350      C1351   1.519       .  S
C1351      F1355   1.385       .  S
C1351      F1356   1.382       .  S
C1351      F1357   1.383       .  S
C1354      F1358   1.384       .  S
C1354      F1359   1.382       .  S
C1354      F1360   1.384       .  S
C1361      C1362   1.420       .  A
C1361      C1366   1.424       .  A
C1361      H1368   1.081       .  S
C1362      C1363   1.414       .  A
C1363      C1364   1.416       .  A
C1363      C1370   1.522       .  S
C1364      C1365   1.427       .  A
C1364      H1369   1.080       .  S
C1365      C1366   1.420       .  A
C1366      C1367   1.517       .  S
C1367      F1371   1.385       .  S
C1367      F1372   1.383       .  S
C1367      F1373   1.383       .  S
C1370      F1374   1.384       .  S
C1370      F1375   1.381       .  S
C1370      F1376   1.385       .  S
C1377      C1378   1.400       .  A
C1377      H1384   1.084       .  S
C1378      C1379   1.404       .  A
C1379      C1380   1.395       .  A
C1379      C1386   1.518       .  S
C1380      H1385   1.080       .  S
C1381      C1382   1.421       .  A
C1382      C1383   1.523       .  S
C1383      F1387   1.375       .  S
C1383      F1388   1.384       .  S
C1383      F1389   1.383       .  S
C1386      F1390   1.383       .  S
C1386      F1391   1.385       .  S
C1386      F1392   1.381       .  S
C1393      C1394   1.395       .  A
C1393      C1398   1.398       .  A
C1393      H1400   1.083       .  S
C1394      C1395   1.424       .  A
C1395      C1396   1.412       .  A
C1395      C1402   1.517       .  S
C1396      C1397   1.400       .  A
C1396      H1401   1.083       .  S
C1397      C1398   1.420       .  A
C1398      C1399   1.514       .  S
C1399      F1403   1.385       .  S
C1399      F1404   1.381       .  S
C1399      F1405   1.376       .  S
C1402      F1406   1.380       .  S
C1402      F1407   1.382       .  S
C1402      F1408   1.385       .  S
C1409      C1410   1.400       .  A
C1409      C1414   1.399       .  A
C1409      H1416   1.083       .  S
C1410      C1411   1.423       .  A
C1411      C1412   1.409       .  A
C1411      C1418   1.519       .  S
C1412      C1413   1.400       .  A
C1412      H1417   1.083       .  S
C1413      C1414   1.418       .  A
C1414      C1415   1.517       .  S
C1415      F1419   1.385       .  S
C1415      F1420   1.377       .  S
C1415      F1421   1.382       .  S
C1418      F1422   1.383       .  S
C1418      F1423   1.380       .  S
C1418      F1424   1.385       .  S
C1425      C1426   1.418       .  A
C1425      C1430   1.408       .  A
C1425      H1432   1.082       .  S
C1426      C1427   1.412       .  A
C1427      C1428   1.405       .  A
C1427      C1434   1.519       .  S
C1428      C1429   1.415       .  A
C1428      H1433   1.083       .  S
C1429      C1430   1.408       .  A
C1430      C1431   1.517       .  S
C1431      F1435   1.385       .  S
C1431      F1436   1.383       .  S
C1431      F1437   1.382       .  S
C1434      F1438   1.383       .  S
C1434      F1439   1.383       .  S
C1434      F1440   1.385       .  S
C1441      C1442   1.402       .  A
C1441      C1446   1.402       .  A
C1441      H1448   1.086       .  S
C1442      C1443   1.410       .  A
C1443      C1444   1.410       .  A
C1443      C1450   1.516       .  S
C1444      C1445   1.409       .  A
C1444      H1449   1.083       .  S
C1445      C1446   1.415       .  A
C1446      C1447   1.515       .  S
C1447      F1451   1.384       .  S
C1447      F1452   1.381       .  S
C1447      F1453   1.383       .  S
C1450      F1454   1.382       .  S
C1450      F1455   1.383   1_545  S
C1450      F1456   1.385       .  S
C1457      C1458   1.407       .  A
C1457      C1462   1.410       .  A
C1457      H1464   1.081       .  S
C1458      C1459   1.413       .  A
C1459      C1460   1.401       .  A
C1459      C1466   1.517       .  S
C1460      C1461   1.403       .  A
C1460      H1465   1.084   1_565  S
C1461      C1462   1.413       .  A
C1462      C1463   1.517       .  S
C1463      F1467   1.385       .  S
C1463      F1468   1.383       .  S
C1463      F1469   1.382       .  S
C1466      F1470   1.383   1_565  S
C1466      F1471   1.383       .  S
C1466      F1472   1.382       .  S
C1473      C1474   1.392       .  A
C1473      H1480   1.083       .  S
C1474      C1475   1.435   1_565  A
C1475      C1476   1.413       .  A
C1475      C1482   1.522       .  S
C1476      H1481   1.083       .  S
C1477      C1478   1.439   1_545  A
C1478      C1479   1.525       .  S
C1479      F1483   1.385       .  S
C1479      F1484   1.381       .  S
C1479      F1485   1.382       .  S
C1482      F1486   1.382       .  S
C1482      F1487   1.379       .  S
C1482      F1488   1.385       .  S
C1489      C1490   1.404   1_565  A
C1489      C1494   1.393       .  A
C1489      H1496   1.083   1_565  S
C1490      C1491   1.406   1_545  A
C1491      C1492   1.393       .  A
C1491      C1498   1.518   1_565  S
C1492      C1493   1.404       .  A
C1492      H1497   1.084       .  S
C1493      C1494   1.406       .  A
C1494      C1495   1.519   1_565  S
C1495      F1499   1.380   1_545  S
C1495      F1500   1.382       .  S
C1495      F1501   1.382   1_545  S
C1498      F1502   1.383   1_545  S
C1498      F1503   1.381       .  S
C1498      F1504   1.383   1_545  S
C1505      C1506   1.405       .  A
C1505      H1512   1.083       .  S
C1507      C1508   1.415       .  A
C1507      C1514   1.523       .  S
C1508      C1509   1.399       .  A
C1508      H1513   1.082       .  S
C1509      C1510   1.427       .  A
C1511      F1515   1.384       .  S
C1514      F1518   1.384       .  S
C1514      F1520   1.385       .  S
C1521      C1522   1.403       .  A
C1521      C1526   1.402       .  A
C1521      H1528   1.082       .  S
C1522      C1523   1.435       .  A
C1523      C1524   1.412       .  A
C1523      C1530   1.521       .  S
C1524      C1525   1.396       .  A
C1524      H1529   1.083       .  S
C1525      C1526   1.420       .  A
C1526      C1527   1.517       .  S
C1527      F1531   1.381       .  S
C1527      F1532   1.376       .  S
C1527      F1533   1.385       .  S
C1530      F1534   1.381       .  S
C1530      F1535   1.381       .  S
C1530      F1536   1.385       .  S
C1537      C1538   1.409       .  A
C1537      C1542   1.412       .  A
C1537      H1544   1.083       .  S
C1538      C1539   1.410       .  A
C1539      C1540   1.402       .  A
C1539      C1546   1.520       .  S
C1540      C1541   1.411       .  A
C1540      H1545   1.083       .  S
C1541      C1542   1.414       .  A
C1542      C1543   1.517       .  S
C1543      F1547   1.385       .  S
C1543      F1548   1.383       .  S
C1543      F1549   1.382       .  S
C1546      F1550   1.383       .  S
C1546      F1551   1.382       .  S
C1546      F1552   1.385       .  S
C1553      C1554   1.421       .  A
C1553      C2118   1.419       .  A
C1553      H1560   1.082       .  S
C1554      C1555   1.417       .  A
C1555      C1556   1.420       .  A
C1555      C1562   1.518       .  S
C1556      C2117   1.421       .  A
C1556      H1561   1.082       .  S
C1557      C2116   1.422       .  A
C1557      C1558   1.412       .  A
C1558      C2113   1.416       .  A
C1558      C1559   1.517       .  S
C1559      F2123   1.385       .  S
C1559      F2124   1.383       .  S
C1559      F1565   1.382   1_556  S
C1562      F1566   1.382       .  S
C1562      F2127   1.383       .  S
C1562      F1568   1.385       .  S
F1563      C2119   1.385       .  S
F1564      C2119   1.383       .  S
F1567      C2122   1.384   1_554  S
C1569      C2130   1.411   1_554  A
C1569      H1576   1.082       .  S
C1570      C2129   1.410       .  A
C1570      C1571   1.405       .  A
C1571      C1578   1.518       .  S
C1572      C2133   1.408       .  A
C1572      H1577   1.084       .  S
C1573      C2132   1.409       .  A
C1573      C1574   1.406   1_556  A
C1574      C1575   1.519       .  S
C1575      F1580   1.383       .  S
C1575      F1581   1.382       .  S
C1578      F1582   1.382       .  S
C1578      F1583   1.383       .  S
C1585      C1586   1.413       .  A
C1585      C1590   1.418       .  A
C1585      H1592   1.081       .  S
C1586      C1587   1.424       .  A
C1587      C1588   1.412       .  A
C1587      C1594   1.522       .  S
C1588      C1589   1.413       .  A
C1588      H1593   1.081       .  S
C1589      C1590   1.424       .  A
C1590      C1591   1.520       .  S
C1591      F1595   1.385       .  S
C1591      F1596   1.384       .  S
C1591      F1597   1.383       .  S
C1594      F1598   1.384       .  S
C1594      F1599   1.383       .  S
C1594      F1600   1.385       .  S
C1601      C1602   1.408       .  A
C1601      C1606   1.408       .  A
C1601      H1608   1.083       .  S
C1602      C2163   1.425       .  A
C1603      C2162   1.423   1_554  A
C1603      C1604   1.412       .  A
C1603      C1610   1.520       .  S
C1604      C1605   1.403   1_554  A
C1604      H1609   1.083       .  S
C1605      C2166   1.418       .  A
C1606      C2165   1.416       .  A
C1606      C1607   1.519       .  S
C1607      F1611   1.384       .  S
C1607      F1612   1.384       .  S
C1607      F1613   1.382       .  S
C1610      F1614   1.382       .  S
C1610      F1615   1.384       .  S
C1610      F1616   1.385       .  S
C1617      C1618   1.409       .  A
C1617      H1624   1.083       .  S
C1618      C2179   1.432   1_544  A
C1619      C2178   1.437   1_565  A
C1619      C1620   1.417       .  A
C1619      C1626   1.522       .  S
C1621      C2182   1.425   1_665  A
C1622      C2181   1.420   1_444  A
C1622      C1623   1.519   1_455  S
C1623      F1627   1.384   1_655  S
C1623      F1628   1.384   1_545  S
C1623      F1629   1.382       .  S
C1626      F1630   1.383       .  S
C1626      F1631   1.382   1_565  S
C1626      F1632   1.384       .  S
C1633      C2194   1.396       .  A
C1633      C1638   1.398       .  A
C1633      H1640   1.086       .  S
C1634      C2193   1.396   1_554  A
C1634      C1635   1.411   1_565  A
C1635      C1636   1.394       .  A
C1635      C1642   1.515       .  S
C1636      C2197   1.403   1_544  A
C1636      H1641   1.085       .  S
C1637      C2196   1.403   1_565  A
C1637      C1638   1.419       .  A
C1638      C1639   1.515       .  S
C1639      F1643   1.384       .  S
C1639      F1644   1.379       .  S
C1639      F1645   1.384       .  S
C1642      F1646   1.384       .  S
C1642      F1647   1.381       .  S
C1642      F1648   1.383       .  S
C1649      C1650   1.406       .  A
C1649      C1654   1.403       .  A
C1649      H1656   1.082       .  S
C1650      C1651   1.432       .  A
C1651      C1652   1.415       .  A
C1651      C1658   1.520       .  S
C1652      C1653   1.399       .  A
C1652      H1657   1.082       .  S
C1653      C1654   1.416       .  A
C1654      C1655   1.518   1_565  S
C1655      F1659   1.385       .  S
C1655      F1660   1.381   1_545  S
C1655      F1661   1.381       .  S
C1658      F1662   1.383       .  S
C1658      F1663   1.380       .  S
C1658      F1664   1.385       .  S
C1665      C1666   1.412       .  A
C1665      C1670   1.402       .  A
C1665      H1672   1.078   1_545  S
C1666      C1667   1.419       .  A
C1667      C1668   1.415       .  A
C1667      C1674   1.518       .  S
C1668      C1669   1.409       .  A
C1668      H1673   1.079       .  S
C1669      C1670   1.410       .  A
C1670      C1671   1.518       .  S
C1671      F1675   1.383       .  S
C1671      F1676   1.382       .  S
C1671      F1677   1.383   1_545  S
C1674      F1678   1.384       .  S
C1674      F1679   1.383       .  S
C1674      F1680   1.382       .  S
Fe1681     O1697   2.079       .  S
Fe1681     O1687   2.066       .  S
Fe1681     O1694   2.125       .  S
Fe1681     O1686   2.103       .  S
Fe1681     O1692   1.937       .  S
Fe1682     O1685   2.006       .  S
Fe1682     O1689   2.090       .  S
Fe1682     O1692   1.941       .  S
Fe1683     O1701   2.085       .  S
Fe1683     O1695   2.079   1_565  S
Fe1683     O1684   2.071       .  S
Fe1683     O1692   1.941       .  S
O1684      C1691   1.272       .  A
O1685      C1699   1.255       .  A
O1686      C1691   1.288       .  A
O1687      C1690   1.270       .  A
O1688      C1700   1.273       .  A
O1689      C1702   1.273       .  A
C1690      O1695   1.274   1_565  A
C1690      C2226   1.490   1_565  S
C1691      C2181   1.495       .  S
O1694      C1696   1.281       .  A
C1696      C2162   1.488       .  S
O1697      C1702   1.271       .  A
O1698      C1700   1.273       .  A
C1699      O1701   1.273       .  A
C1699      C2197   1.464       .  S
C1700      C2210   1.502       .  S
C1702      C2146   1.514       .  S
Fe1703     O1719   2.096       .  S
Fe1703     O1709   2.163       .  S
Fe1703     O1716   2.151       .  S
Fe1703     O1708   2.040       .  S
Fe1703     O1714   1.944       .  S
Fe1704     O1715   2.046       .  S
Fe1704     O1714   1.943       .  S
Fe1705     O1710   2.075       .  S
Fe1705     O1706   2.099       .  S
Fe1705     O1714   1.948       .  S
O1706      C1713   1.273       .  A
O1707      C1721   1.270       .  A
O1708      C1713   1.262       .  A
O1709      C1712   1.295       .  A
O1710      C1722   1.269       .  A
C1712      C2117   1.521       .  S
C1713      C2085   1.478       .  S
O1715      C1718   1.268       .  A
O1716      C1718   1.292       .  A
C1718      C2066   1.519       .  S
O1719      C1724   1.273       .  A
C1721      O1723   1.279       .  A
C1721      C2098   1.470       .  S
C1722      C2133   1.454       .  S
C1724      C2165   1.475       .  S
Fe1725     O1741   2.124       .  S
Fe1725     O1731   2.049       .  S
Fe1725     O1738   2.100       .  S
Fe1725     O1730   2.144       .  S
Fe1725     O1736   1.948       .  S
Fe1726     O1729   2.022       .  S
Fe1726     O1733   2.058       .  S
Fe1726     O1737   2.020       .  S
Fe1726     O1742   2.058       .  S
Fe1726     O1736   1.948       .  S
Fe1727     O1745   2.055   1_565  S
Fe1727     O1732   2.092       .  S
Fe1727     O1739   2.092   1_565  S
Fe1727     O1728   2.029       .  S
Fe1727     O1736   1.948       .  S
O1728      C1735   1.264       .  A
O1729      C1743   1.256       .  A
O1730      C1735   1.292       .  A
O1731      C1734   1.263   1_565  A
O1732      C1744   1.277       .  A
O1733      C1746   1.276       .  A
C1734      O1739   1.270       .  A
C1734      C2002   1.476       .  S
C1735      C2034   1.505       .  S
O1737      C1740   1.255       .  A
O1738      C1740   1.274       .  A
C1740      C1989   1.476       .  S
O1741      C1746   1.284       .  A
O1742      C1744   1.274       .  A
C1743      O1745   1.266   1_565  A
C1743      C2053   1.445       .  S
C1744      C2018   1.477       .  S
C1746      C2149   1.515       .  S
Fe1747     O1763   2.104       .  S
Fe1747     O1753   2.152       .  S
Fe1747     O1760   2.144       .  S
Fe1747     O1752   2.053       .  S
Fe1747     O1758   1.949       .  S
Fe1748     O1751   2.057       .  S
Fe1748     O1755   2.029       .  S
Fe1748     O1759   2.036       .  S
Fe1748     O1764   2.012       .  S
Fe1748     O1758   1.953       .  S
Fe1749     O1767   2.085       .  S
Fe1749     O1754   2.065       .  S
Fe1749     O1761   2.046       .  S
Fe1749     O1750   2.081       .  S
Fe1749     O1758   1.952       .  S
O1750      C1757   1.270       .  A
O1751      C1765   1.271       .  A
O1752      C1757   1.266       .  A
O1753      C1756   1.292       .  A
O1754      C1766   1.265       .  A
O1755      C1768   1.258       .  A
C1756      O1761   1.270       .  A
C1756      C1922   1.519       .  S
C1757      C1973   1.477       .  S
O1759      C1762   1.265       .  A
O1760      C1762   1.288       .  A
C1762      C2069   1.507       .  S
O1763      C1768   1.276       .  A
O1764      C1766   1.257       .  A
C1765      O1767   1.277       .  A
C1765      C1954   1.483       .  S
C1766      C1938   1.449       .  S
C1768      C1986   1.481       .  S
Fe1769     O1785   2.113       .  S
Fe1769     O1775   2.045       .  S
Fe1769     O1782   2.125       .  S
Fe1769     O1774   2.139       .  S
Fe1769     O1780   1.935       .  S
Fe1770     O1773   2.016       .  S
Fe1770     O1777   2.075       .  S
Fe1770     O1781   2.021       .  S
Fe1770     O1786   2.063       .  S
Fe1770     O1780   1.939       .  S
Fe1771     O1789   2.073       .  S
Fe1771     O1776   2.073       .  S
Fe1771     O1783   2.080       .  S
Fe1771     O1772   2.051       .  S
Fe1771     O1780   1.947       .  S
O1772      C1779   1.270       .  A
O1773      C1787   1.259       .  A
O1774      C1779   1.293       .  A
O1775      C1778   1.269       .  A
O1776      C1788   1.276       .  A
O1777      C1790   1.264       .  A
C1778      O1783   1.274       .  A
C1778      C2101   1.484       .  S
C1779      C1925   1.530       .  S
O1781      C1784   1.258       .  A
O1782      C1784   1.282       .  A
C1784      C1909   1.490       .  S
O1785      C1790   1.279       .  A
O1786      C1788   1.264       .  A
C1787      O1789   1.267       .  A
C1787      C1941   1.474       .  S
C1788      C2082   1.498       .  S
C1790      C1893   1.518       .  S
Fe1791     O1807   2.087       .  S
Fe1791     O1797   2.153       .  S
Fe1791     O1804   2.128       .  S
Fe1791     O1796   2.035       .  S
Fe1791     O1802   1.941       .  S
Fe1792     O1795   2.043       .  S
Fe1792     O1799   2.029       .  S
Fe1792     O1803   2.035       .  S
Fe1792     O1808   2.020       .  S
Fe1792     O1802   1.943       .  S
Fe1793     O1811   2.105       .  S
Fe1793     O1798   2.057       .  S
Fe1793     O1805   2.033       .  S
Fe1793     O1794   2.102       .  S
Fe1793     O1802   1.945       .  S
O1794      C1801   1.272       .  A
O1795      C1809   1.270       .  A
O1796      C1801   1.259       .  A
O1797      C1800   1.294       .  A
O1798      C1810   1.264       .  A
O1799      C1812   1.258       .  A
C1800      O1805   1.264       .  A
C1800      C2037   1.511       .  S
C1801      C2213   1.481   1_545  S
O1803      C1806   1.269       .  A
O1804      C1806   1.285       .  A
C1806      C1874   1.512       .  S
O1807      C1812   1.273       .  A
O1808      C1810   1.259       .  A
C1809      O1811   1.280       .  A
C1809      C2229   1.472       .  S
C1810      C2050   1.445       .  S
C1812      C1906   1.472       .  S
Fe1813     O1829   2.091       .  S
Fe1813     O1819   2.140       .  S
Fe1813     O1826   2.128       .  S
Fe1813     O1818   2.045       .  S
Fe1813     O1824   1.949       .  S
Fe1814     O1825   2.036       .  S
Fe1814     O1824   1.948       .  S
Fe1815     O1820   2.062   1_545  S
Fe1815     O1816   2.096   1_545  S
Fe1815     O1824   1.951       .  S
O1816      C1823   1.273   1_565  A
O1817      C1831   1.270       .  A
O1818      C1823   1.267       .  A
O1819      C1822   1.287       .  A
O1820      C1832   1.268   1_565  A
C1822      C2178   1.521       .  S
C1823      C2021   1.476   1_545  S
O1825      C1828   1.266       .  A
O1826      C1828   1.282       .  A
C1828      C1877   1.503       .  S
O1829      C1834   1.276       .  A
C1831      O1833   1.276       .  A
C1831      C2005   1.482       .  S
C1832      C2194   1.443   1_545  S
C1834      C1861   1.474       .  S
Fe1835     O1851   2.156       .  S
Fe1835     O1841   2.056       .  S
Fe1835     O1848   2.101       .  S
Fe1835     O1840   2.164       .  S
Fe1835     O1846   1.942       .  S
Fe1836     O1839   2.015   1_556  S
Fe1836     O1843   2.037       .  S
Fe1836     O1846   1.951       .  S
Fe1837     O1855   2.068       .  S
Fe1837     O1849   2.092       .  S
Fe1837     O1838   2.036   1_556  S
Fe1837     O1846   1.946       .  S
O1838      C1845   1.270   1_554  A
O1839      C1853   1.254   1_554  A
O1840      C1845   1.297       .  A
O1841      C1844   1.264       .  A
O1842      C1854   1.278       .  A
O1843      C1856   1.267       .  A
C1844      O1849   1.270       .  A
C1844      C1957   1.487       .  S
C1845      C2114   1.516       .  S
O1848      C1850   1.272       .  A
C1850      C1858   1.475       .  S
O1851      C1856   1.295       .  A
O1852      C1854   1.271       .  A
C1853      O1855   1.268       .  A
C1853      C2130   1.459       .  S
C1854      C1970   1.477       .  S
C1856      C1890   1.519       .  S
C1857      C1858   1.410       .  A
C1857      C1862   1.411       .  A
C1857      H1864   1.083       .  S
C1859      C1860   1.407       .  A
C1859      C1866   1.517       .  S
C1860      C1861   1.411       .  A
C1860      H1865   1.083       .  S
C1862      C1863   1.516       .  S
C1863      F1867   1.385       .  S
C1863      F1868   1.383       .  S
C1863      F1869   1.383       .  S
C1866      F1870   1.384       .  S
C1866      F1871   1.383       .  S
C1866      F1872   1.384       .  S
C1873      C1874   1.417       .  A
C1873      C1878   1.410       .  A
C1873      H1880   1.081       .  S
C1874      C1875   1.422       .  A
C1875      C1876   1.414       .  A
C1875      C1882   1.520       .  S
C1876      C1877   1.413       .  A
C1876      H1881   1.082       .  S
C1877      C1878   1.417       .  A
C1878      C1879   1.519       .  S
C1879      F1883   1.385       .  S
C1879      F1884   1.382       .  S
C1879      F1885   1.383       .  S
C1882      F1886   1.383       .  S
C1882      F1887   1.384       .  S
C1882      F1888   1.385       .  S
C1889      C1890   1.405       .  A
C1889      C1894   1.418       .  A
C1889      H1896   1.082       .  S
C1890      C1891   1.438       .  A
C1891      C1898   1.526       .  S
C1892      C1893   1.403       .  A
C1892      H1897   1.082       .  S
C1894      C1895   1.522       .  S
C1895      F1899   1.385       .  S
C1895      F1901   1.384       .  S
C1898      F1902   1.379       .  S
C1898      F1903   1.383       .  S
C1905      C1906   1.403       .  A
C1905      C1910   1.411       .  A
C1905      H1912   1.083       .  S
C1906      C1907   1.415       .  A
C1907      C1908   1.404       .  A
C1907      C1914   1.517       .  S
C1908      C1909   1.406       .  A
C1908      H1913   1.084       .  S
C1909      C1910   1.425       .  A
C1910      C1911   1.520       .  S
C1911      F1915   1.385       .  S
C1911      F1916   1.382       .  S
C1911      F1917   1.383       .  S
C1914      F1918   1.382       .  S
C1914      F1919   1.383       .  S
C1914      F1920   1.384       .  S
C1921      C1922   1.420       .  A
C1921      C1926   1.423       .  A
C1921      H1928   1.083       .  S
C1922      C1923   1.414       .  A
C1923      C1924   1.417       .  A
C1923      C1930   1.519       .  S
C1924      C1925   1.426       .  A
C1924      H1929   1.081       .  S
C1925      C1926   1.420       .  A
C1926      C1927   1.517       .  S
C1927      F1931   1.384       .  S
C1927      F1932   1.383       .  S
C1927      F1933   1.383       .  S
C1930      F1934   1.384       .  S
C1930      F1935   1.382       .  S
C1930      F1936   1.385       .  S
C1937      C1938   1.400       .  A
C1937      H1944   1.084       .  S
C1938      C1939   1.405       .  A
C1939      C1940   1.396       .  A
C1939      C1946   1.518       .  S
C1940      H1945   1.081       .  S
C1941      C1942   1.422       .  A
C1942      C1943   1.523       .  S
C1943      F1947   1.378       .  S
C1943      F1948   1.384       .  S
C1943      F1949   1.383       .  S
C1946      F1950   1.383       .  S
C1946      F1951   1.385       .  S
C1946      F1952   1.381       .  S
C1953      C1954   1.396       .  A
C1953      C1958   1.399       .  A
C1953      H1960   1.084       .  S
C1954      C1955   1.423       .  A
C1955      C1956   1.416       .  A
C1955      C1962   1.517       .  S
C1956      C1957   1.403       .  A
C1956      H1961   1.083       .  S
C1957      C1958   1.422       .  A
C1958      C1959   1.515       .  S
C1959      F1963   1.385       .  S
C1959      F1964   1.381       .  S
C1959      F1965   1.374       .  S
C1962      F1966   1.382       .  S
C1962      F1967   1.383       .  S
C1962      F1968   1.385       .  S
C1969      C1970   1.399       .  A
C1969      C1974   1.400       .  A
C1969      H1976   1.083       .  S
C1970      C1971   1.422       .  A
C1971      C1972   1.410       .  A
C1971      C1978   1.519       .  S
C1972      C1973   1.401       .  A
C1972      H1977   1.083       .  S
C1973      C1974   1.419       .  A
C1974      C1975   1.518       .  S
C1975      F1979   1.385       .  S
C1975      F1980   1.379       .  S
C1975      F1981   1.382       .  S
C1978      F1982   1.382       .  S
C1978      F1983   1.380       .  S
C1978      F1984   1.385       .  S
C1985      C1986   1.411       .  A
C1985      C1990   1.409       .  A
C1985      H1992   1.083       .  S
C1986      C1987   1.410       .  A
C1987      C1988   1.409       .  A
C1987      C1994   1.516       .  S
C1988      C1989   1.410       .  A
C1988      H1993   1.083       .  S
C1989      C1990   1.409       .  A
C1990      C1991   1.516       .  S
C1991      F1995   1.384       .  S
C1991      F1996   1.384       .  S
C1991      F1997   1.383       .  S
C1994      F1998   1.383       .  S
C1994      F1999   1.383       .  S
C1994      F2000   1.385       .  S
C2001      C2002   1.403       .  A
C2001      C2006   1.407       .  A
C2001      H2008   1.084       .  S
C2002      C2003   1.412       .  A
C2003      C2004   1.412       .  A
C2003      C2010   1.515       .  S
C2004      C2005   1.408       .  A
C2004      H2009   1.084       .  S
C2005      C2006   1.412       .  A
C2006      C2007   1.511       .  S
C2007      F2011   1.385       .  S
C2007      F2012   1.384       .  S
C2007      F2013   1.379       .  S
C2010      F2014   1.382       .  S
C2010      F2015   1.383   1_545  S
C2010      F2016   1.385       .  S
C2017      C2018   1.408       .  A
C2017      C2022   1.411       .  A
C2017      H2024   1.082       .  S
C2018      C2019   1.416       .  A
C2019      C2020   1.403       .  A
C2019      C2026   1.517       .  S
C2020      C2021   1.403       .  A
C2020      H2025   1.083   1_565  S
C2021      C2022   1.411       .  A
C2022      C2023   1.515       .  S
C2023      F2027   1.384       .  S
C2023      F2028   1.383       .  S
C2023      F2029   1.383       .  S
C2026      F2030   1.384   1_565  S
C2026      F2031   1.381       .  S
C2026      F2032   1.381       .  S
C2033      C2034   1.397       .  A
C2033      H2040   1.082       .  S
C2034      C2035   1.437   1_565  A
C2035      C2036   1.411       .  A
C2035      C2042   1.523       .  S
C2036      H2041   1.083       .  S
C2037      C2038   1.438   1_545  A
C2038      C2039   1.524       .  S
C2039      F2043   1.385       .  S
C2039      F2044   1.381       .  S
C2039      F2045   1.382       .  S
C2042      F2046   1.382       .  S
C2042      F2047   1.382       .  S
C2042      F2048   1.385       .  S
C2049      C2050   1.403       .  A
C2049      C2054   1.393       .  A
C2049      H2056   1.082       .  S
C2050      C2051   1.408       .  A
C2051      C2052   1.398   1_545  A
C2051      C2058   1.519       .  S
C2052      C2053   1.406       .  A
C2052      H2057   1.083       .  S
C2053      C2054   1.405   1_565  A
C2054      C2055   1.516       .  S
C2055      F2059   1.379   1_545  S
C2055      F2060   1.381       .  S
C2055      F2061   1.380       .  S
C2058      F2062   1.383   1_545  S
C2058      F2063   1.382       .  S
C2058      F2064   1.384   1_545  S
C2065      C2066   1.407       .  A
C2065      H2072   1.082       .  S
C2067      C2068   1.416       .  A
C2067      C2074   1.524       .  S
C2068      C2069   1.401       .  A
C2068      H2073   1.083       .  S
C2069      C2070   1.427       .  A
C2071      F2075   1.385       .  S
C2074      F2078   1.384       .  S
C2074      F2080   1.385       .  S
C2081      C2082   1.403       .  A
C2081      C2086   1.401       .  A
C2081      H2088   1.081       .  S
C2082      C2083   1.435       .  A
C2083      C2084   1.411       .  A
C2083      C2090   1.521       .  S
C2084      C2085   1.395       .  A
C2084      H2089   1.083       .  S
C2085      C2086   1.418       .  A
C2086      C2087   1.516       .  S
C2087      F2091   1.381       .  S
C2087      F2092   1.378       .  S
C2087      F2093   1.385       .  S
C2090      F2094   1.382       .  S
C2090      F2095   1.382       .  S
C2090      F2096   1.385       .  S
C2097      C2098   1.408       .  A
C2097      C2102   1.411       .  A
C2097      H2104   1.083       .  S
C2098      C2099   1.408       .  A
C2099      C2100   1.399       .  A
C2099      C2106   1.519       .  S
C2100      C2101   1.411       .  A
C2100      H2105   1.084       .  S
C2101      C2102   1.415       .  A
C2102      C2103   1.517       .  S
C2103      F2107   1.385       .  S
C2103      F2108   1.383       .  S
C2103      F2109   1.382       .  S
C2106      F2110   1.383       .  S
C2106      F2111   1.382       .  S
C2106      F2112   1.385       .  S
C2113      C2114   1.421       .  A
C2113      H2120   1.081       .  S
C2114      C2115   1.414       .  A
C2115      C2116   1.420       .  A
C2115      C2122   1.517       .  S
C2116      H2121   1.082       .  S
C2117      C2118   1.416       .  A
C2118      C2119   1.518       .  S
C2119      F2125   1.381       .  S
C2122      F2126   1.382       .  S
C2122      F2128   1.385       .  S
C2129      H2136   1.084       .  S
C2130      C2131   1.405       .  A
C2131      C2138   1.519       .  S
C2132      H2137   1.084       .  S
C2133      C2134   1.406       .  A
C2134      C2135   1.518       .  S
C2135      F2140   1.383       .  S
C2135      F2141   1.382       .  S
C2138      F2142   1.383       .  S
C2138      F2143   1.383       .  S
C2145      C2146   1.414       .  A
C2145      C2150   1.418       .  A
C2145      H2152   1.082       .  S
C2146      C2147   1.425       .  A
C2147      C2148   1.411       .  A
C2147      C2154   1.523       .  S
C2148      C2149   1.411       .  A
C2148      H2153   1.081       .  S
C2149      C2150   1.423       .  A
C2150      C2151   1.520       .  S
C2151      F2155   1.385       .  S
C2151      F2156   1.384       .  S
C2151      F2157   1.383       .  S
C2154      F2158   1.383       .  S
C2154      F2159   1.383       .  S
C2154      F2160   1.385       .  S
C2161      C2162   1.404       .  A
C2161      C2166   1.406       .  A
C2161      H2168   1.083       .  S
C2163      C2164   1.409       .  A
C2163      C2170   1.519       .  S
C2164      C2165   1.400       .  A
C2164      H2169   1.085       .  S
C2166      C2167   1.518       .  S
C2167      F2171   1.385       .  S
C2167      F2172   1.383       .  S
C2167      F2173   1.383       .  S
C2170      F2174   1.383       .  S
C2170      F2175   1.382       .  S
C2170      F2176   1.385       .  S
C2177      C2178   1.410       .  A
C2177      H2184   1.082       .  S
C2179      C2180   1.415       .  A
C2179      C2186   1.517       .  S
C2182      C2183   1.520   1_455  S
C2183      F2187   1.384   1_655  S
C2183      F2188   1.384   1_545  S
C2183      F2189   1.382       .  S
C2186      F2190   1.383       .  S
C2186      F2191   1.383   1_565  S
C2186      F2192   1.385       .  S
C2193      C2198   1.398       .  A
C2193      H2200   1.086       .  S
C2194      C2195   1.412   1_565  A
C2195      C2196   1.398       .  A
C2195      C2202   1.517       .  S
C2196      H2201   1.086       .  S
C2197      C2198   1.421       .  A
C2198      C2199   1.518       .  S
C2199      F2203   1.384       .  S
C2199      F2204   1.381       .  S
C2199      F2205   1.383       .  S
C2202      F2206   1.384       .  S
C2202      F2207   1.382       .  S
C2202      F2208   1.383       .  S
C2209      C2210   1.407       .  A
C2209      C2214   1.400   1_565  A
C2209      H2216   1.081   1_565  S
C2210      C2211   1.430       .  A
C2211      C2212   1.416       .  A
C2211      C2218   1.520       .  S
C2212      C2213   1.400       .  A
C2212      H2217   1.082       .  S
C2213      C2214   1.418   1_565  A
C2214      C2215   1.523       .  S
C2215      F2219   1.385       .  S
C2215      F2220   1.380       .  S
C2215      F2221   1.382       .  S
C2218      F2222   1.383       .  S
C2218      F2223   1.382       .  S
C2218      F2224   1.385       .  S
C2225      C2226   1.411       .  A
C2225      C2230   1.403       .  A
C2225      H2232   1.076       .  S
C2226      C2227   1.417       .  A
C2227      C2228   1.412       .  A
C2227      C2234   1.518       .  S
C2228      C2229   1.407       .  A
C2228      H2233   1.079       .  S
C2229      C2230   1.408       .  A
C2230      C2231   1.518       .  S
C2231      F2235   1.382       .  S
C2231      F2236   1.383       .  S
C2231      F2237   1.382   1_545  S
C2234      F2238   1.385       .  S
C2234      F2239   1.382       .  S
C2234      F2240   1.383       .  S
