geometry optimzed in LAMMPS
_audit_creation_date              2020-12-01 
_audit_creation_method            'lammps2cif' 
_symmetry_space_group_name_H-M    'P1' 
_symmetry_Int_Tables_number       1 
_symmetry_cell_setting            triclinic 
loop_ 
_symmetry_equiv_pos_as_xyz 
  x,y,z 
_cell_length_a                    26.60272129 
_cell_length_b                    29.499793702809928 
_cell_length_c                    48.66627059202634 
_cell_angle_alpha                 89.966509944936 
_cell_angle_beta                  90.01959326791523 
_cell_angle_gamma                 90.10055715913028 
loop_ 
_atom_site_label 
_atom_site_type_symbol 
_atom_site_fract_x 
_atom_site_fract_y 
_atom_site_fract_z 
_atom_site_charge 
Fe1        Fe  0.07776046  0.17116105  0.89694082     1.65800
Fe2        Fe  0.18644309  0.22413036  0.88327071     1.73200
Fe3        Fe  0.11606636  0.25478386  0.93792491     1.54400
O4          O  0.04818361  0.27570778  0.92287260    -0.81000
O5          O  0.23359328  0.23448834  0.91786414    -0.79300
O6          O  0.01759745  0.20760047  0.91407307    -0.83500
O7          O  0.09097108  0.14085113  0.93362343    -0.78300
O8          O  0.15009422  0.31235841  0.92049419    -0.80100
O9          O  0.20324530  0.15676366  0.88690229    -0.82900
C10         C  0.07861881  0.15892029  0.95613943     0.97900
C11         C  0.01160427  0.24826534  0.92228443     1.05300
O12         O  0.12703418  0.21728695  0.90581416    -1.11800
O13         O  0.14413979  0.21442014  0.84646406    -0.74300
O14         O  0.06503742  0.20093347  0.86003112    -0.77800
O15         O  0.08063414  0.20173846  0.95997630    -0.78400
C16         C  0.09679654  0.21089521  0.84153782     0.96800
O17         O  0.12881254  0.12560751  0.87978264    -0.76400
O18         O  0.17576131  0.29246115  0.87873802    -0.81600
C19         C  0.22648782  0.23405679  0.94393419     0.99400
C20         C  0.16875791  0.32228230  0.89709034     1.05400
O21         O  0.18288134  0.23535061  0.95440981    -0.77200
C22         C  0.17606002  0.12223413  0.88284585     1.03700
Fe23       Fe  0.93668452  0.86754078  0.09807558     1.65800
Fe24       Fe  0.83264309  0.81229733  0.11817761     1.73200
Fe25       Fe  0.87586803  0.80018113  0.05391759     1.54400
O26         O  0.90412344  0.85831469  0.03346171    -0.81000
O27         O  0.84612070  0.74416340  0.11493917    -0.79300
O28         O  0.91462065  0.90817790  0.06710230    -0.83500
O29         O  0.98750588  0.83283258  0.07225507    -0.78300
O30         O  0.80630346  0.82735939  0.04975925    -0.80100
O31         O  0.88678218  0.81594317  0.15048362    -0.82900
C32         C  0.98616693  0.79552670  0.05886874     0.97900
C33         C  0.91042949  0.89886803  0.04196295     1.05300
O34         O  0.88237738  0.82579620  0.09028162    -1.11800
O35         O  0.81567395  0.87992506  0.12120170    -0.74300
O36         O  0.89244833  0.90945628  0.12307384    -0.77800
O37         O  0.94595442  0.77284363  0.05637493    -0.78400
C38         C  0.84474102  0.91375017  0.12388482     0.96800
O39         O  0.96058101  0.82946547  0.13055556    -0.76400
O40         O  0.77261937  0.80575148  0.08939543    -0.81600
C41         C  0.83870846  0.72135642  0.09315747     0.99400
C42         C  0.76845882  0.81652505  0.06399538     1.05400
O43         O  0.84510126  0.73884791  0.06929898    -0.77200
C44         C  0.93497789  0.81854106  0.15148294     1.03700
Fe45       Fe  0.43303472  0.66918776  0.89428504     1.65800
Fe46       Fe  0.33155089  0.72893950  0.87628516     1.73200
Fe47       Fe  0.37913503  0.73799494  0.93976654     1.54400
O48         O  0.40764990  0.67916938  0.95964974    -0.81000
O49         O  0.35075897  0.79566075  0.87934781    -0.79300
O50         O  0.41060806  0.62968447  0.92559024    -0.83500
O51         O  0.48766555  0.70226706  0.91936682    -0.78300
O52         O  0.30894963  0.71223240  0.94489304    -0.80100
O53         O  0.38224080  0.72243090  0.84259983    -0.82900
C54         C  0.48863770  0.73963074  0.93288707     0.97900
C55         C  0.41174343  0.63857187  0.95083714     1.05300
O56         O  0.38213229  0.71299783  0.90314525    -1.11800
O57         O  0.30940727  0.66285116  0.87403565    -0.74300
O58         O  0.38367825  0.62925894  0.87055002    -0.77800
O59         O  0.44969273  0.76376030  0.93584533    -0.78400
C60         C  0.33566464  0.62739905  0.87131380     0.96800
O61         O  0.45659439  0.70578041  0.86099408    -0.76400
O62         O  0.27451643  0.73779533  0.90629629    -0.81600
C63         C  0.34451222  0.81819585  0.90126533     0.99400
C64         C  0.27093164  0.72476887  0.93130847     1.05400
O65         O  0.34960948  0.80002364  0.92503103    -0.77200
C66         C  0.42998354  0.71729415  0.84051868     1.03700
Fe67       Fe  0.57602564  0.36174482  0.09952862     1.65800
Fe68       Fe  0.68584368  0.31198941  0.11512343     1.73200
Fe69       Fe  0.62483626  0.28500339  0.05693788     1.54400
O70         O  0.55809400  0.25709980  0.06874762    -0.81000
O71         O  0.73656578  0.30187252  0.08201098    -0.79300
O72         O  0.51996076  0.32071956  0.08136571    -0.83500
O73         O  0.58734184  0.39517233  0.06360349    -0.78300
O74         O  0.66271599  0.22874763  0.07351206    -0.80100
O75         O  0.70142155  0.38020081  0.11269015    -0.82900
C76         C  0.57993372  0.37837255  0.04014324     0.97900
C77         C  0.51861145  0.28065655  0.07131980     1.05300
O78         O  0.62877495  0.31921109  0.09079637    -1.11800
O79         O  0.64159773  0.32032280  0.15113368    -0.74300
O80         O  0.56309735  0.33052432  0.13628880    -0.77800
O81         O  0.58638799  0.33634593  0.03519418    -0.78400
C82         C  0.59407546  0.32188600  0.15538411     0.96800
O83         O  0.62495446  0.40964639  0.11691770    -0.76400
O84         O  0.67397050  0.24324871  0.11797331    -0.81600
C85         C  0.73301474  0.30743563  0.05596799     0.99400
C86         C  0.67495875  0.21619333  0.09771524     1.05400
O87         O  0.69107895  0.31209881  0.04399425    -0.77200
C88         C  0.67257728  0.41413556  0.11533768     1.03700
Fe89       Fe  0.94395235  0.16152792  0.60238630     1.65800
Fe90       Fe  0.83686172  0.21655896  0.61506068     1.73200
Fe91       Fe  0.90398862  0.23992194  0.55857156     1.54400
O92         O  0.97112897  0.26380565  0.57258356    -0.81000
O93         O  0.78961742  0.22908191  0.58069709    -0.79300
O94         O  0.00344595  0.19733505  0.58396524    -0.83500
O95         O  0.93102743  0.12770147  0.56690279    -0.78300
O96         O  0.86849468  0.29806582  0.57399443    -0.80100
O97         O  0.81730406  0.14969038  0.61164830    -0.82900
C98         C  0.94346679  0.14362805  0.54382428     0.97900
C99         C  0.00817438  0.23705999  0.57387076     1.05300
O100        O  0.89489211  0.20641793  0.59220319    -1.11800
O101        O  0.87837861  0.20588446  0.65202204    -0.74300
O102        O  0.95741209  0.19435938  0.63828535    -0.77800
O103        O  0.94071752  0.18590370  0.53844739    -0.78400
C104        C  0.92577871  0.20382945  0.65684201     0.96800
O105        O  0.89121973  0.11825602  0.62036559    -0.76400
O106        O  0.85321672  0.28413913  0.61818103    -0.81600
C107        C  0.79475794  0.22317652  0.55473906     0.99400
C108        C  0.85516447  0.31110005  0.59790694     1.05400
O109        O  0.83731274  0.21664255  0.54378384    -0.77200
C110        C  0.84430038  0.11499090  0.61554225     1.03700
Fe111      Fe  0.09820110  0.85831103  0.39090310     1.65800
Fe112      Fe  0.20040340  0.79602374  0.37785705     1.73200
Fe113      Fe  0.14529693  0.79074228  0.43953772     1.54400
O114        O  0.11945522  0.85202882  0.45719955    -0.81000
O115        O  0.17719214  0.73010173  0.38056777    -0.79300
O116        O  0.11594730  0.89993119  0.42211097    -0.83500
O117        O  0.03929031  0.82833496  0.41413905    -0.78300
O118        O  0.21652586  0.81282662  0.44701722    -0.80100
O119        O  0.15511320  0.80453141  0.34199984    -0.82900
C120        C  0.03577769  0.79190027  0.42833800     0.97900
C121        C  0.11564597  0.89218813  0.44753848     1.05300
O122        O  0.14736055  0.81450141  0.40268466    -1.11800
O123        O  0.22480523  0.86137959  0.37608144    -0.74300
O124        O  0.15171416  0.89536296  0.36826938    -0.77800
O125        O  0.07375259  0.76789408  0.43401901    -0.78400
C126        C  0.19949567  0.89678073  0.37115667     0.96800
O127        O  0.07885124  0.81924742  0.35803166    -0.76400
O128        O  0.25381505  0.78534844  0.40989981    -0.81600
C129        C  0.17696078  0.70771427  0.40286230     0.99400
C130        C  0.25550567  0.79878877  0.43490613     1.05400
O131        O  0.17129999  0.72674926  0.42632305    -0.77200
C132        C  0.10782270  0.81001815  0.33819464     1.03700
Fe133      Fe  0.59723215  0.65993484  0.60330392     1.65800
Fe134      Fe  0.70371636  0.71551879  0.61716260     1.73200
Fe135      Fe  0.64954306  0.72480821  0.55502682     1.54400
O136        O  0.61748925  0.66543797  0.53742526    -0.81000
O137        O  0.68843869  0.78298363  0.61372653    -0.79300
O138        O  0.61513735  0.61760217  0.57254515    -0.83500
O139        O  0.54197298  0.69210023  0.57877322    -0.78300
O140        O  0.71900786  0.69825910  0.54763469    -0.80100
O141        O  0.65556790  0.71256372  0.65231997    -0.82900
C142        C  0.54056785  0.72879953  0.56476294     0.97900
C143        C  0.61178736  0.62549755  0.54719211     1.05300
O144        O  0.64970320  0.70095947  0.59199946    -1.11800
O145        O  0.72171055  0.64831955  0.61998533    -0.74300
O146        O  0.64548341  0.62012771  0.62730912    -0.77800
O147        O  0.57971492  0.75228433  0.56053473    -0.78400
C148        C  0.69291149  0.61510053  0.62501191     0.96800
O149        O  0.57880959  0.70060550  0.63563086    -0.76400
O150        O  0.75829859  0.72161410  0.58535357    -0.81600
C151        C  0.69090143  0.80509025  0.59136534     0.99400
C152        C  0.75877264  0.71028003  0.55994322     1.05400
O153        O  0.68184397  0.78671269  0.56803264    -0.77200
C154        C  0.60760891  0.71127267  0.65538232     1.03700
Fe155      Fe  0.44097372  0.35868005  0.39767524     1.65800
Fe156      Fe  0.33574638  0.30162295  0.38203141     1.73200
Fe157      Fe  0.40584097  0.27204428  0.43727203     1.54400
O158        O  0.47632783  0.25521254  0.42371614    -0.81000
O159        O  0.28752523  0.28767000  0.41560972    -0.79300
O160        O  0.50245026  0.32502412  0.41546296    -0.83500
O161        O  0.42447837  0.38752252  0.43450255    -0.78300
O162        O  0.37696495  0.21363270  0.41840962    -0.80100
O163        O  0.31479929  0.36809197  0.38594572    -0.82900
C164        C  0.43489377  0.36932208  0.45733962     0.97900
C165        C  0.51100322  0.28461868  0.42343722     1.05300
O166        O  0.39393184  0.31019223  0.40548153    -1.11800
O167        O  0.37905906  0.31422833  0.34606891    -0.74300
O168        O  0.45709467  0.33012580  0.36057116    -0.77800
O169        O  0.43530863  0.32631199  0.46066621    -0.78400
C170        C  0.42639825  0.31913620  0.34171210     0.96800
O171        O  0.38808576  0.40216190  0.38009974    -0.76400
O172        O  0.35045950  0.23420137  0.37689514    -0.81600
C173        C  0.29374507  0.28637531  0.44170336     0.99400
C174        C  0.35892731  0.20401610  0.39481195     1.05400
O175        O  0.33695166  0.28669097  0.45265624    -0.77200
C176        C  0.34053447  0.40363944  0.38233128     1.03700
C177        C  0.52957385  0.42780297  0.50059737    -0.27500
C178        C  0.50947629  0.47191043  0.50176810     0.06100
C179        C  0.45902498  0.47838365  0.49380099     0.25700
C180        C  0.43200606  0.44289193  0.48179116    -0.12000
C181        C  0.45377387  0.39988316  0.47881775    -0.25900
C182        C  0.50131456  0.39181272  0.49018094     0.36500
C183        C  0.54149553  0.51077844  0.51061675     0.06100
F184        F  0.43627447  0.51924239  0.49674970    -0.19700
H185        H  0.39503424  0.44962386  0.47335885     0.15900
F186        F  0.52253700  0.35016527  0.48862992    -0.23400
H187        H  0.56819121  0.42129633  0.50633279     0.17700
C188        C  0.57584551  0.50583402  0.53236272     0.25700
C189        C  0.60380918  0.54276476  0.54139002    -0.12000
C190        C  0.59634495  0.58628724  0.53025069    -0.26000
C191        C  0.56454944  0.59105763  0.50741283     0.36600
C192        C  0.53796353  0.55335492  0.49744550    -0.27600
F193        F  0.57975687  0.46636088  0.54654422    -0.19700
H194        H  0.62832938  0.53794297  0.55890752     0.15900
F195        F  0.55616157  0.63242360  0.49609844    -0.23500
H196        H  0.51336754  0.55788206  0.47995997     0.17800
C197        C  0.94217062  0.71890335  0.46600127    -0.27500
C198        C  0.91439041  0.75143015  0.48060511     0.06100
C199        C  0.92147900  0.79761832  0.47402678     0.25700
C200        C  0.95783475  0.81075480  0.45465124    -0.12000
C201        C  0.98777742  0.77819845  0.44146890    -0.25900
C202        C  0.97808375  0.73199469  0.44654080     0.36500
C203        C  0.87850973  0.73699848  0.50262731     0.06100
F204        F  0.89393528  0.83014993  0.48670088    -0.19700
H205        H  0.96483861  0.84656870  0.45133082     0.15900
F206        F  0.00523630  0.69944538  0.43359693    -0.23400
H207        H  0.93761732  0.68312837  0.47045541     0.17700
C208        C  0.84415868  0.70144272  0.49809048     0.25700
C209        C  0.80804881  0.69057143  0.51793390    -0.12000
C210        C  0.80502192  0.71465454  0.54285163    -0.26000
C211        C  0.84147510  0.74817996  0.54822578     0.36600
C212        C  0.87774344  0.75913126  0.52828358    -0.27600
F213        F  0.84321649  0.67901002  0.47375118    -0.19700
H214        H  0.78060274  0.66454359  0.51315364     0.15900
F215        F  0.84000594  0.77257600  0.57184455    -0.23500
H216        H  0.90462046  0.78581024  0.53266903     0.17800
C217        C  0.37937322  0.75634419  0.46473576    -0.27500
C218        C  0.37993647  0.77824307  0.49045208     0.06100
C219        C  0.34306293  0.81103646  0.49592366     0.25700
C220        C  0.30483653  0.81946022  0.47685772    -0.12000
C221        C  0.30229858  0.79567420  0.45175440    -0.25900
C222        C  0.34120625  0.76508790  0.44545583     0.36500
C223        C  0.41797244  0.76594003  0.51173154     0.06100
F224        F  0.34217585  0.83308263  0.52039893    -0.19700
H225        H  0.27582532  0.84357574  0.48232656     0.15900
F226        F  0.34100517  0.74181708  0.42141733    -0.23400
H227        H  0.40810120  0.73165107  0.45979770     0.17700
C228        C  0.42514779  0.72046146  0.51962342     0.25700
C229        C  0.46248260  0.70894019  0.53874821    -0.12000
C230        C  0.49385199  0.74238087  0.55017130    -0.26000
C231        C  0.48510567  0.78808830  0.54322085     0.36600
C232        C  0.44742723  0.79962391  0.52433077    -0.27600
F233        F  0.39637159  0.68707457  0.50859016    -0.19700
H234        H  0.46871717  0.67344207  0.54343839     0.15900
F235        F  0.51401856  0.82154194  0.55409266    -0.23500
H236        H  0.44242743  0.83493910  0.51878927     0.17800
C237        C  0.30287036  0.98520577  0.37790744    -0.27500
C238        C  0.27556166  0.02558935  0.37600782     0.06100
C239        C  0.22367175  0.02355301  0.37052375     0.25700
C240        C  0.19949210  0.98164532  0.36766503    -0.12000
C241        C  0.22651815  0.94094021  0.37016060    -0.25900
C242        C  0.27892344  0.94331027  0.37498647     0.36500
C243        C  0.30120081  0.06972600  0.37994221     0.06100
F244        F  0.19596643  0.06207936  0.36911451    -0.19700
H245        H  0.15919621  0.98112752  0.36439090     0.15900
F246        F  0.30714405  0.90527064  0.37772623    -0.23400
H247        H  0.34298604  0.98613691  0.38185737     0.17700
C248        C  0.32846308  0.07912374  0.40405856     0.25700
C249        C  0.34943932  0.12216158  0.40823510    -0.12000
C250        C  0.34385368  0.15654703  0.38841971    -0.26000
C251        C  0.31842420  0.14607603  0.36368644     0.36600
C252        C  0.29733015  0.10322979  0.35968595    -0.27600
F253        F  0.33261504  0.04745309  0.42417445    -0.19700
H254        H  0.36851839  0.12899757  0.42747236     0.15900
F255        F  0.31203113  0.17756353  0.34364137    -0.23500
H256        H  0.27712326  0.09634644  0.34078287     0.17800
C257        C  0.31261250  0.52882398  0.39158588    -0.27500
C258        C  0.26012774  0.52976561  0.38843231     0.06100
C259        C  0.23503349  0.48991884  0.38048902     0.25700
C260        C  0.26177145  0.44940984  0.37738847    -0.12000
C261        C  0.31410197  0.44794694  0.38171413    -0.25900
C262        C  0.33948035  0.48851472  0.38817492     0.36500
C263        C  0.23225746  0.57238872  0.39385164     0.06100
F264        F  0.18441735  0.48963720  0.37695668    -0.19700
H265        H  0.24122635  0.41883786  0.37224865     0.15900
F266        F  0.38986852  0.48899576  0.39256150    -0.23400
H267        H  0.33282569  0.55940074  0.39711151     0.17700
C268        C  0.23995252  0.59646771  0.41846159     0.25700
C269        C  0.21825659  0.63914013  0.42220993    -0.12000
C270        C  0.18899783  0.65883669  0.40139533    -0.26000
C271        C  0.17854813  0.63347213  0.37752888     0.36600
C272        C  0.19994078  0.59056732  0.37388616    -0.27600
F273        F  0.26966145  0.57924836  0.43859070    -0.19700
H274        H  0.22697687  0.65795687  0.44072743     0.15900
F275        F  0.14909970  0.65080611  0.35731145    -0.23500
H276        H  0.19317621  0.57248315  0.35487166     0.17800
C277        C  0.74625923  0.02170636  0.61074851    -0.27500
C278        C  0.77565959  0.98448790  0.60293393     0.06100
C279        C  0.82784194  0.99006639  0.59999488     0.25700
C280        C  0.85016104  0.03215560  0.60531181    -0.12000
C281        C  0.82076493  0.06960695  0.61309449    -0.25900
C282        C  0.76831501  0.06399030  0.61551763     0.36500
C283        C  0.75177158  0.93960254  0.59915074     0.06100
F284        F  0.85725207  0.95467293  0.59239536    -0.19700
H285        H  0.89042974  0.03574261  0.60260690     0.15900
F286        F  0.73822602  0.09927693  0.62248057    -0.23400
H287        H  0.70589543  0.01799595  0.61297680     0.17700
C288        C  0.72572485  0.91932069  0.62101391     0.25700
C289        C  0.70429358  0.87642126  0.61788842    -0.12000
C290        C  0.70810566  0.85285905  0.59285831    -0.26000
C291        C  0.73359849  0.87357260  0.57075801     0.36600
C292        C  0.75533313  0.91656485  0.57399166    -0.27600
F293        F  0.72279043  0.94030735  0.64578065    -0.19700
H294        H  0.68550104  0.86117160  0.63536087     0.15900
F295        F  0.73974106  0.85148969  0.54652990    -0.23500
H296        H  0.77539471  0.93177194  0.55692624     0.17800
C297        C  0.81609973  0.42031580  0.63247895    -0.27500
C298        C  0.78910775  0.44170142  0.61139527     0.06100
C299        C  0.78798276  0.42181799  0.58512911     0.25700
C300        C  0.81218736  0.38046109  0.58045374    -0.12000
C301        C  0.83730583  0.35803115  0.60191816    -0.25900
C302        C  0.83967082  0.37872672  0.62793579     0.36500
C303        C  0.76296184  0.48497372  0.61703872     0.06100
F304        F  0.76349276  0.44232597  0.56404802    -0.19700
H305        H  0.80948358  0.36503397  0.56027700     0.15900
F306        F  0.86421481  0.35849106  0.64908792    -0.23400
H307        H  0.81781490  0.43539385  0.65277504     0.17700
C308        C  0.71110328  0.48982950  0.61224980     0.25700
C309        C  0.68751718  0.53153420  0.61696362    -0.12000
C310        C  0.71533945  0.56916441  0.62618547    -0.26000
C311        C  0.76680949  0.56348440  0.63210009     0.36600
C312        C  0.79013906  0.52174015  0.62767306    -0.27600
F313        F  0.68341178  0.45437005  0.60285590    -0.19700
H314        H  0.64795788  0.53498191  0.61206908     0.15900
F315        F  0.79495888  0.59859401  0.64153714    -0.23500
H316        H  0.83002859  0.51844669  0.63181110     0.17800
C317        C  0.97967960  0.03383649  0.51115473    -0.27500
C318        C  0.02862856  0.04378054  0.50212205     0.06100
C319        C  0.04551093  0.08913988  0.50284077     0.30500
C320        C  0.01479880  0.12304780  0.51379945    -0.12000
C321        C  0.96751897  0.11209235  0.52469263    -0.25900
C322        C  0.94976330  0.06737610  0.52281381     0.36500
C323        C  0.06067940  0.00658300  0.49147667     0.06100
F324        F  0.09271928  0.10032332  0.49468018    -0.19700
H325        H  0.02962612  0.15712864  0.51581935     0.15900
F326        F  0.90443991  0.05571126  0.53356154    -0.23400
H327        H  0.96490306  0.99968225  0.50983625     0.17700
C328        C  0.06145305  0.96364100  0.50431707     0.25700
C329        C  0.08355684  0.92649567  0.49115626    -0.12000
C330        C  0.10605230  0.93188417  0.46532786    -0.26000
C331        C  0.11069702  0.97602564  0.45425920     0.36600
C332        C  0.08738238  0.01262698  0.46696117    -0.27600
F333        F  0.03901812  0.95715342  0.52905640    -0.19700
H334        H  0.08014924  0.89318586  0.50032227     0.15900
F335        F  0.13475374  0.98351873  0.43004770    -0.23500
H336        H  0.08772261  0.04510367  0.45660923     0.17800
C337        C  0.71450962  0.21457024  0.49059262    -0.27500
C338        C  0.67560510  0.24506959  0.49642062     0.06100
C339        C  0.67365485  0.26528295  0.52264550     0.25700
C340        C  0.71100998  0.25612490  0.54221678    -0.12000
C341        C  0.75104722  0.22692866  0.53595026    -0.25900
C342        C  0.75197694  0.20571121  0.50997796     0.36500
C343        C  0.63734815  0.25522945  0.47501879     0.06100
F344        F  0.63562092  0.29380142  0.52937726    -0.19700
H345        H  0.70963721  0.27321889  0.56189757     0.15900
F346        F  0.78961289  0.17684411  0.50308067    -0.23400
H347        H  0.71661228  0.19841155  0.47064112     0.17700
C348        C  0.62628472  0.30013451  0.46747617     0.25700
C349        C  0.58856854  0.30913063  0.44818830    -0.12000
C350        C  0.55978538  0.27375690  0.43679134    -0.26000
C351        C  0.57315255  0.22870066  0.44301400     0.36600
C352        C  0.61181251  0.21968224  0.46177449    -0.27600
F353        F  0.65120782  0.33541045  0.47914477    -0.19700
H354        H  0.57953902  0.34416871  0.44371004     0.15900
F355        F  0.54768966  0.19335346  0.43179457    -0.23500
H356        H  0.62040363  0.18477765  0.46685985     0.17800
C357        C  0.13191890  0.22601256  0.53626918    -0.27500
C358        C  0.13111025  0.26497309  0.51970547     0.06100
C359        C  0.09291906  0.29703541  0.52345151     0.25700
C360        C  0.05541512  0.28955205  0.54302441    -0.12000
C361        C  0.05467463  0.24950426  0.55885611    -0.25900
C362        C  0.09412580  0.21812761  0.55561811     0.36500
C363        C  0.17150261  0.27247499  0.49937502     0.06100
F364        F  0.09172323  0.33543533  0.50808677    -0.19700
H365        H  0.02553796  0.31427426  0.54478508     0.15900
F366        F  0.09510898  0.17879123  0.57009580    -0.23400
H367        H  0.16134490  0.20103103  0.53369070     0.17700
C368        C  0.22149443  0.27369224  0.50821816     0.25700
C369        C  0.26019200  0.27911790  0.48930320    -0.12000
C370        C  0.25030282  0.28307458  0.46090868    -0.26000
C371        C  0.19987536  0.28216947  0.45200337     0.36600
C372        C  0.16079566  0.27721469  0.47120964    -0.27600
F373        F  0.23292590  0.26986748  0.53531982    -0.19700
H374        H  0.29829097  0.27964579  0.49713225     0.15900
F375        F  0.18827958  0.28540004  0.42492070    -0.23500
H376        H  0.12223677  0.27607279  0.46407836     0.17800
C377        C  0.57420051  0.32410680  0.23309938    -0.27500
C378        C  0.52383400  0.30950137  0.23519041     0.06100
C379        C  0.49877178  0.29596486  0.21113208     0.25700
C380        C  0.52278650  0.29863700  0.18563522    -0.12000
C381        C  0.57257434  0.31447717  0.18330884    -0.25900
C382        C  0.59852313  0.32640196  0.20747341     0.36500
C383        C  0.49718310  0.30943033  0.26221645     0.06100
F384        F  0.45097893  0.27988126  0.21224277    -0.19700
H385        H  0.50195038  0.28865831  0.16746969     0.15900
F386        F  0.64631981  0.34243252  0.20625410    -0.23400
H387        H  0.59433342  0.33509946  0.25128049     0.17700
C388        C  0.51967992  0.29048303  0.28570491     0.25700
C389        C  0.49536386  0.29245471  0.31116530    -0.12000
C390        C  0.44781530  0.31275391  0.31384843    -0.26000
C391        C  0.42443726  0.33049400  0.29029917     0.36600
C392        C  0.44908412  0.32902228  0.26479405    -0.27600
F393        F  0.56508033  0.26975074  0.28405002    -0.19700
H394        H  0.51406310  0.27837416  0.32902173     0.15900
F395        F  0.37924987  0.35155161  0.29221090    -0.23500
H396        H  0.43111069  0.34441909  0.24712955     0.17800
C397        C  0.46140566  0.74971952  0.76604489    -0.27500
C398        C  0.50809279  0.72792320  0.76214768     0.06100
C399        C  0.52869342  0.70383774  0.78442042     0.25700
C400        C  0.50333221  0.70152064  0.80961148    -0.12000
C401        C  0.45626045  0.72250950  0.81345258    -0.25900
C402        C  0.43552515  0.74676961  0.79124880     0.36500
C403        C  0.53370153  0.72793683  0.73460775     0.06100
F404        F  0.57239325  0.68062730  0.78156823    -0.19700
H405        H  0.52022498  0.68199238  0.82602252     0.15900
F406        F  0.39054768  0.76795273  0.79387428    -0.23400
H407        H  0.44474081  0.76900404  0.74947365     0.17700
C408        C  0.50631986  0.71853690  0.71055170     0.25700
C409        C  0.53065926  0.71490850  0.68515828    -0.12000
C410        C  0.58323815  0.72005422  0.68270987    -0.26000
C411        C  0.61068612  0.73073105  0.70665001     0.36600
C412        C  0.58608740  0.73475395  0.73219911    -0.27600
F413        F  0.45613222  0.71038103  0.71165248    -0.19700
H414        H  0.50796637  0.70659561  0.66739608     0.15900
F415        F  0.66126919  0.73648393  0.70559777    -0.23500
H416        H  0.60820356  0.74274953  0.75022655     0.17800
C417        C  0.47830747  0.56438259  0.00217559    -0.27500
C418        C  0.47234861  0.52186135  0.98927674     0.06100
C419        C  0.43753877  0.51781591  0.96774026     0.25700
C420        C  0.41221850  0.55587567  0.95815587    -0.12000
C421        C  0.42255937  0.59930785  0.96881091    -0.25900
C422        C  0.45374708  0.60299825  0.99198606     0.36500
C423        C  0.50288436  0.48215907  0.99793495     0.06100
F424        F  0.43106488  0.47794519  0.95426286    -0.19700
H425        H  0.38783047  0.55187874  0.94047113     0.15900
F426        F  0.46369106  0.64405054  0.00334234    -0.23400
H427        H  0.50349936  0.56802343  0.01951535     0.17700
C428        C  0.55479988  0.48654362  0.00301143     0.25700
C429        C  0.58177054  0.45035951  0.01421482    -0.12000
C430        C  0.55794104  0.40887385  0.01965334    -0.26000
C431        C  0.50734912  0.40307945  0.01229085     0.36600
C432        C  0.47996941  0.43959617  0.00180321    -0.27600
F433        F  0.57915170  0.52615632  0.99794920    -0.19700
H434        H  0.62063740  0.45549075  0.02014031     0.15900
F435        F  0.48300866  0.36372299  0.01808334    -0.23500
H436        H  0.44008552  0.43520687  0.99823382     0.17800
C437        C  0.04011156  0.81506281  0.20528152    -0.27500
C438        C  0.01380470  0.80415862  0.22942000     0.06100
C439        C  0.96180126  0.79486548  0.22725719     0.25700
C440        C  0.93671529  0.79847656  0.20195155    -0.12000
C441        C  0.96268613  0.81075052  0.17793742    -0.25900
C442        C  0.01527564  0.81796060  0.17989061     0.36500
C443        C  0.03957467  0.80532883  0.25690535     0.06100
F444        F  0.93492054  0.78220025  0.24968393    -0.19700
H445        H  0.89663570  0.79216556  0.20127928     0.15900
F446        F  0.04295851  0.82918177  0.15745145    -0.23400
H447        H  0.07983180  0.82294904  0.20612027     0.17700
C448        C  0.08801888  0.78698556  0.26133793     0.25700
C449        C  0.11044546  0.78849935  0.28760602    -0.12000
C450        C  0.08504957  0.80798161  0.31004624    -0.26000
C451        C  0.03723803  0.82729316  0.30523780     0.36600
C452        C  0.01537261  0.82619261  0.27915607    -0.27600
F453        F  0.11331343  0.76662227  0.24053583    -0.19700
H454        H  0.14738939  0.77389450  0.29044766     0.15900
F455        F  0.01152223  0.84844739  0.32561392    -0.23500
H456        H  0.97926600  0.84241009  0.27634081     0.17800
C457        C  0.06842768  0.72650587  0.01097234    -0.27500
C458        C  0.10764015  0.75690780  0.00567139     0.06100
C459        C  0.11004791  0.79785933  0.02034885     0.25700
C460        C  0.07215343  0.80909019  0.03915051    -0.12000
C461        C  0.03111736  0.77972387  0.04345055    -0.25900
C462        C  0.03043852  0.73764640  0.02955016     0.36500
C463        C  0.14577257  0.74552437  0.98473758     0.06100
F464        F  0.14879633  0.82710694  0.01628017    -0.19700
H465        H  0.07387706  0.84157939  0.04941437     0.15900
F466        F  0.99213075  0.70772405  0.03300794    -0.23400
H467        H  0.06644554  0.69460610  0.00004171     0.17700
C468        C  0.17808905  0.70865903  0.98878065     0.25700
C469        C  0.21638472  0.69991058  0.96994137    -0.12000
C470        C  0.22290603  0.72746535  0.94656653    -0.26000
C471        C  0.18810394  0.76235435  0.94148744     0.36600
C472        C  0.15012767  0.77154952  0.96066272    -0.27600
F473        F  0.17434688  0.68267901  0.01173015    -0.19700
H474        H  0.24251781  0.67273350  0.97431121     0.15900
F475        F  0.19280569  0.78948776  0.91910161    -0.23500
H476        H  0.12474099  0.79957452  0.95705371     0.17800
C477        C  0.64751608  0.76767279  0.03516269    -0.27500
C478        C  0.64391627  0.79160208  0.01016505     0.06100
C479        C  0.67684699  0.82811666  0.00555150     0.25700
C480        C  0.71411241  0.83870076  0.02471558    -0.12000
C481        C  0.72003895  0.81305018  0.04889712    -0.25900
C482        C  0.68516681  0.77827652  0.05444133     0.36500
C483        C  0.60672220  0.77825212  0.98867325     0.06100
F484        F  0.67538335  0.85167548  0.98159443    -0.19700
H485        H  0.74050334  0.86552256  0.01978868     0.15900
F486        F  0.68973503  0.75235068  0.07735257    -0.23400
H487        H  0.62195861  0.73992526  0.03941946     0.17700
C488        C  0.60282430  0.73314880  0.97935836     0.25700
C489        C  0.56699470  0.72121001  0.95939555    -0.12000
C490        C  0.53417855  0.75390314  0.94844734    -0.26000
C491        C  0.53976870  0.79937167  0.95696159     0.36600
C492        C  0.57546415  0.81118625  0.97681798    -0.27600
F493        F  0.63349803  0.70057064  0.98964085    -0.19700
H494        H  0.56322426  0.68593209  0.95356225     0.15900
F495        F  0.50952443  0.83238411  0.94676421    -0.23500
H496        H  0.57774560  0.84615294  0.98350922     0.17800
C497        C  0.71352177  0.10621440  0.13239469    -0.27500
C498        C  0.74516441  0.08693578  0.11244642     0.06100
C499        C  0.74949735  0.10854890  0.08672176     0.25700
C500        C  0.72451189  0.14946437  0.08166752    -0.12000
C501        C  0.69480881  0.16979313  0.10208543    -0.25900
C502        C  0.68875679  0.14729130  0.12738386     0.36500
C503        C  0.77258718  0.04399009  0.11841250     0.06100
F504        F  0.77758852  0.08999459  0.06635806    -0.19700
H505        H  0.72984162  0.16610979  0.06201281     0.15900
F506        F  0.65898274  0.16505128  0.14728594    -0.23400
H507        H  0.70887967  0.08991339  0.15219738     0.17700
C508        C  0.82440897  0.03964873  0.11304860     0.25700
C509        C  0.84866634  0.99793937  0.11685939    -0.12000
C510        C  0.82185510  0.95965647  0.12600233    -0.26000
C511        C  0.77077663  0.96492643  0.13306496     0.36600
C512        C  0.74662776  0.00660392  0.12930597    -0.27600
F513        F  0.85153946  0.07561055  0.10387069    -0.19700
H514        H  0.88799575  0.99509582  0.11130214     0.15900
F515        F  0.74363780  0.92944110  0.14288072    -0.23500
H516        H  0.70690052  0.00919401  0.13400282     0.17800
C517        C  0.77367417  0.60854644  0.07742783    -0.27500
C518        C  0.76746992  0.59048789  0.10393166     0.06100
C519        C  0.78742727  0.61418071  0.12641775     0.25700
C520        C  0.81229553  0.65553071  0.12252921    -0.12000
C521        C  0.81816108  0.67436454  0.09608042    -0.25900
C522        C  0.79897666  0.64990625  0.07341923     0.36500
C523        C  0.74190186  0.54617971  0.10812718     0.06100
F524        F  0.78154769  0.59787974  0.15230847    -0.19700
H525        H  0.82605586  0.67332267  0.14048959     0.15900
F526        F  0.80344429  0.66628402  0.04746618    -0.23400
H527        H  0.75898533  0.59044678  0.05978846     0.17700
C528        C  0.69042368  0.54045965  0.10248153     0.25700
C529        C  0.66738159  0.49800644  0.10621979    -0.12000
C530        C  0.69536963  0.46036365  0.11531953    -0.26000
C531        C  0.74668240  0.46671595  0.12158168     0.36600
C532        C  0.76939500  0.50918960  0.11815250    -0.27600
F533        F  0.66248978  0.57591636  0.09341941    -0.19700
H534        H  0.62796656  0.49422218  0.10105320     0.15900
F535        F  0.77519980  0.43178646  0.13082849    -0.23500
H536        H  0.80900280  0.51306270  0.12285135     0.17800
C537        C  0.95063062  0.19445199  0.73361248    -0.27500
C538        C  0.99812681  0.21548221  0.73561493     0.06100
C539        C  0.01899082  0.23546360  0.71207210     0.25700
C540        C  0.99351658  0.23350125  0.68700236    -0.12000
C541        C  0.94668746  0.21156615  0.68469812    -0.25900
C542        C  0.92503659  0.19238802  0.70836627     0.36500
C543        C  0.02555085  0.21699773  0.76224825     0.06100
F544        F  0.06400861  0.25708385  0.71333204    -0.19700
H545        H  0.01104994  0.24847372  0.66904526     0.15900
F546        F  0.88090663  0.16937261  0.70678327    -0.23400
H547        H  0.93398334  0.17852655  0.75151656     0.17700
C548        C  0.00202949  0.23455572  0.78570908     0.25700
C549        C  0.02700532  0.23471287  0.81092449    -0.12000
C550        C  0.07600887  0.21729993  0.81350937    -0.26000
C551        C  0.10049139  0.20114176  0.78985739     0.36600
C552        C  0.07533378  0.20105503  0.76443368    -0.27600
F553        F  0.95476145  0.25163261  0.78424768    -0.19700
H554        H  0.00734034  0.24762491  0.82878468     0.15900
F555        F  0.14725584  0.18303149  0.79158358    -0.23500
H556        H  0.09417689  0.18725715  0.74656051     0.17800
C557        C  0.04707774  0.05115979  0.99176317    -0.27500
C558        C  0.99463918  0.05581275  0.99410632     0.06100
C559        C  0.97304302  0.09885179  0.98978367     0.25700
C560        C  0.00301611  0.13519437  0.98125705    -0.12000
C561        C  0.05433402  0.12889156  0.97608052    -0.25900
C562        C  0.07658839  0.08710671  0.98237840     0.36500
C563        C  0.96345695  0.01569491  0.00134058     0.06100
F564        F  0.92260794  0.10505419  0.99159359    -0.19700
H565        H  0.98522969  0.16701575  0.97607681     0.15900
F566        F  0.12626310  0.08023195  0.97757299    -0.23400
H567        H  0.06506218  0.01906722  0.99617801     0.17700
C568        C  0.97326373  0.97263786  0.98982917     0.25700
C569        C  0.95073565  0.93369946  0.00085740    -0.12000
C570        C  0.91767111  0.93742709  0.02312738    -0.26000
C571        C  0.90283841  0.98085120  0.03200010     0.36600
C572        C  0.92617090  0.01946248  0.02154573    -0.27600
F573        F  0.00660989  0.96794078  0.96891964    -0.19700
H574        H  0.96252350  0.90067176  0.99364396     0.15900
F575        F  0.86927021  0.98567459  0.05280419    -0.23500
H576        H  0.91752370  0.05189990  0.03075430     0.17800
C577        C  0.30876005  0.50034240  0.87175096    -0.27500
C578        C  0.25680156  0.49948176  0.87711939     0.06100
C579        C  0.23070644  0.54071678  0.87861217     0.25700
C580        C  0.25632692  0.58182422  0.87528088    -0.12000
C581        C  0.30871415  0.58298764  0.87060252    -0.25900
C582        C  0.33455983  0.54150429  0.86856120     0.36500
C583        C  0.23043867  0.45548944  0.88135362     0.06100
F584        F  0.18036574  0.54130231  0.88320852    -0.19700
H585        H  0.23505076  0.61293152  0.87716002     0.15900
F586        F  0.38490751  0.54051508  0.86419327    -0.23400
H587        H  0.32972077  0.46895555  0.87068871     0.17700
C588        C  0.23570176  0.42030418  0.86217993     0.25700
C589        C  0.21358158  0.37804744  0.86696939    -0.12000
C590        C  0.18597363  0.36945283  0.89114317    -0.26000
C591        C  0.17937906  0.40524740  0.91000651     0.36600
C592        C  0.20129157  0.44781164  0.90503095    -0.27600
F593        F  0.26252602  0.42672649  0.83877175    -0.19700
H594        H  0.21948061  0.35155183  0.85192774     0.15900
F595        F  0.15293093  0.39900228  0.93355554    -0.23500
H596        H  0.19682754  0.47443249  0.92015087     0.17800
C597        C  0.19715228  0.99472246  0.88733526    -0.27500
C598        C  0.24979324  0.99280676  0.88857117     0.06100
C599        C  0.27778849  0.03283546  0.88625108     0.25700
C600        C  0.25346854  0.07442809  0.88332451    -0.12000
C601        C  0.20061262  0.07700787  0.88261828    -0.25900
C602        C  0.17255969  0.03642641  0.88428029     0.36500
C603        C  0.27580192  0.94912513  0.89228735     0.06100
F604        F  0.32872659  0.03174577  0.88769001    -0.19700
H605        H  0.27625057  0.10483855  0.88221407     0.15900
F606        F  0.12153974  0.03699954  0.88389036    -0.23400
H607        H  0.17514924  0.96389130  0.88897488     0.17700
C608        C  0.27682105  0.92766734  0.91801955     0.25700
C609        C  0.30183594  0.88627717  0.92125892    -0.12000
C610        C  0.32589186  0.86548088  0.89881275    -0.26000
C611        C  0.32591205  0.88805747  0.87319891     0.36600
C612        C  0.30119660  0.92950846  0.87011676    -0.27600
F613        F  0.25347376  0.94672887  0.93993934    -0.19700
H614        H  0.30075113  0.86971919  0.94112558     0.15900
F615        F  0.34897957  0.86983205  0.85092316    -0.23500
H616        H  0.30121694  0.94610448  0.85024135     0.17800
C617        C  0.35885304  0.23888344  0.97442651    -0.27500
C618        C  0.34841670  0.23823089  0.00281791     0.06100
C619        C  0.29824977  0.23404213  0.01137050     0.25700
C620        C  0.25958313  0.23163171  0.99203997    -0.12000
C621        C  0.26957657  0.23332921  0.96357236    -0.25900
C622        C  0.31999294  0.23633938  0.95495688     0.36500
C623        C  0.38958398  0.24404097  0.02328633     0.06100
F624        F  0.28642670  0.23207895  0.03848444    -0.19700
H625        H  0.22141835  0.22893758  0.99959895     0.15900
F626        F  0.33185162  0.23798627  0.92786040    -0.23400
H627        H  0.39714929  0.24271251  0.96725618     0.17700
C628        C  0.43480297  0.21984248  0.02081182     0.25700
C629        C  0.47515895  0.22928121  0.03828409    -0.12000
C630        C  0.47167807  0.26332617  0.05849644    -0.26000
C631        C  0.42524668  0.28516219  0.06231078     0.36600
C632        C  0.38477282  0.27568485  0.04478593    -0.27600
F633        F  0.44054500  0.18784108  0.00102786    -0.19700
H634        H  0.51024063  0.21163635  0.03478631     0.15900
F635        F  0.41951103  0.31702400  0.08216380    -0.23500
H636        H  0.35036680  0.29479498  0.04723409     0.17800
C637        C  0.81706400  0.32441013  0.99439939    -0.27500
C638        C  0.85129338  0.28868121  0.99739721     0.06100
C639        C  0.85008455  0.26245922  0.02161646     0.25700
C640        C  0.81374497  0.27091936  0.04186067    -0.12000
C641        C  0.77789588  0.30527243  0.03811723    -0.25900
C642        C  0.78047501  0.33245036  0.01436884     0.36500
C643        C  0.88809921  0.27942571  0.97519157     0.06100
F644        F  0.88372907  0.22851775  0.02557570    -0.19700
H645        H  0.81197285  0.24910410  0.05977507     0.15900
F646        F  0.74655638  0.36605500  0.01010045    -0.23400
H647        H  0.81761207  0.34523704  0.97604279     0.17700
C648        C  0.89207261  0.23618302  0.96326266     0.25700
C649        C  0.92922983  0.22745367  0.94361629    -0.12000
C650        C  0.96375087  0.26136125  0.93587568    -0.26000
C651        C  0.95692715  0.30557758  0.94623184     0.36600
C652        C  0.91943233  0.31433775  0.96564000    -0.27600
F653        F  0.86064040  0.20217492  0.97096031    -0.19700
H654        H  0.93293716  0.19320677  0.93582274     0.15900
F655        F  0.98805522  0.33993930  0.93875395    -0.23500
H656        H  0.91623037  0.34818114  0.97412655     0.17800
loop_ 
_geom_bond_atom_site_label_1 
_geom_bond_atom_site_label_2 
_geom_bond_distance 
_geom_bond_site_symmetry_2 
_ccdc_geom_bond_type 
Fe1          O17   2.087       .  S
Fe1           O7   2.027       .  S
Fe1          O14   2.028       .  S
Fe1           O6   2.102       .  S
Fe1          O12   1.937       .  S
Fe2           O5   2.121       .  S
Fe2           O9   2.045       .  S
Fe2          O13   2.134       .  S
Fe2          O18   2.048       .  S
Fe2          O12   1.934       .  S
Fe3          O21   2.033       .  S
Fe3           O8   2.102       .  S
Fe3          O15   2.117       .  S
Fe3           O4   2.045       .  S
Fe3          O12   1.938       .  S
O4           C11   1.265       .  A
O5           C19   1.283       .  A
O6           C11   1.275       .  A
O7           C10   1.263       .  A
O8           C20   1.276       .  A
O9           C22   1.264       .  A
C10          O15   1.278       .  A
C10         C561   1.463       .  S
C11         C650   1.487   1_455  S
O13          C16   1.286       .  A
O14          C16   1.269       .  A
C16         C550   1.484       .  S
O17          C22   1.270       .  A
O18          C20   1.268       .  A
C19          O21   1.268       .  A
C19         C621   1.492       .  S
C20         C590   1.492       .  S
C22         C601   1.487       .  S
Fe23         O39   2.041       .  S
Fe23         O29   2.113       .  S
Fe23         O36   2.098       .  S
Fe23         O28   2.013       .  S
Fe23         O34   1.934       .  S
Fe24         O27   2.048       .  S
Fe24         O31   2.134       .  S
Fe24         O35   2.052       .  S
Fe24         O40   2.132       .  S
Fe24         O34   1.937       .  S
Fe25         O43   2.121       .  S
Fe25         O30   2.028       .  S
Fe25         O37   2.036       .  S
Fe25         O26   2.119       .  S
Fe25         O34   1.932       .  S
O26          C33   1.277       .  A
O27          C41   1.271       .  A
O28          C33   1.259       .  A
O29          C32   1.280       .  A
O30          C42   1.263       .  A
O31          C44   1.285       .  A
C32          O37   1.267       .  A
C32         C461   1.488   1_655  S
C33         C570   1.473       .  S
O35          C38   1.268       .  A
O36          C38   1.276       .  A
C38         C510   1.489       .  S
O39          C44   1.267       .  A
O40          C42   1.281       .  A
C41          O43   1.282       .  A
C41         C521   1.496       .  S
C42         C481   1.486       .  S
C44         C441   1.501       .  S
Fe45         O61   2.044       .  S
Fe45         O51   2.133       .  S
Fe45         O58   2.107       .  S
Fe45         O50   2.008       .  S
Fe45         O56   1.923       .  S
Fe46         O49   2.038       .  S
Fe46         O53   2.132       .  S
Fe46         O57   2.039       .  S
Fe46         O62   2.123       .  S
Fe46         O56   1.934       .  S
Fe47         O65   2.117       .  S
Fe47         O52   2.030       .  S
Fe47         O59   2.033       .  S
Fe47         O48   2.127       .  S
Fe47         O56   1.931       .  S
O48          C55   1.277       .  A
O49          C63   1.268       .  A
O50          C55   1.257       .  A
O51          C54   1.284       .  A
O52          C64   1.264       .  A
O53          C66   1.283       .  A
C54          O59   1.266       .  A
C54         C490   1.489       .  S
C55         C421   1.480       .  S
O57          C60   1.266       .  A
O58          C60   1.279       .  A
C60         C581   1.493       .  S
O61          C66   1.269       .  A
O62          C64   1.280       .  A
C63          O65   1.282       .  A
C63         C610   1.486       .  S
C64         C470   1.480       .  S
C66         C401   1.499       .  S
Fe67         O83   2.098       .  S
Fe67         O73   2.029       .  S
Fe67         O80   2.041       .  S
Fe67         O72   2.113       .  S
Fe67         O78   1.932       .  S
Fe68         O71   2.124       .  S
Fe68         O75   2.057       .  S
Fe68         O79   2.126       .  S
Fe68         O84   2.056       .  S
Fe68         O78   1.937       .  S
Fe69         O87   2.034       .  S
Fe69         O74   2.103       .  S
Fe69         O81   2.113       .  S
Fe69         O70   2.038       .  S
Fe69         O78   1.935       .  S
O70          C77   1.267       .  A
O71          C85   1.281       .  A
O72          C77   1.280       .  A
O73          C76   1.260       .  A
O74          C86   1.277       .  A
O75          C88   1.269       .  A
C76          O81   1.275       .  A
C76         C430   1.465       .  S
C77         C630   1.486       .  S
O79          C82   1.282       .  A
O80          C82   1.268       .  A
C82         C381   1.490       .  S
O83          C88   1.276       .  A
O84          C86   1.269       .  A
C85          O87   1.266       .  A
C85         C641   1.478       .  S
C86         C501   1.483       .  S
C88         C530   1.491       .  S
Fe89        O105   2.087       .  S
Fe89         O95   2.024       .  S
Fe89        O102   2.029       .  S
Fe89         O94   2.102   1_655  S
Fe89        O100   1.925       .  S
Fe90         O93   2.124       .  S
Fe90         O97   2.046       .  S
Fe90        O101   2.134       .  S
Fe90        O106   2.046       .  S
Fe90        O100   1.927       .  S
Fe91        O109   2.033       .  S
Fe91         O96   2.099       .  S
Fe91        O103   2.112       .  S
Fe91         O92   2.036       .  S
Fe91        O100   1.927       .  S
O92          C99   1.265   1_655  A
O93         C107   1.283       .  A
O94          C99   1.276       .  A
O95          C98   1.261       .  A
O96         C108   1.276       .  A
O97         C110   1.266       .  A
C98         O103   1.276       .  A
C98         C321   1.465       .  S
C99         C361   1.482       .  S
O101        C104   1.284       .  A
O102        C104   1.266       .  A
C104        C541   1.483       .  S
O105        C110   1.273       .  A
O106        C108   1.268       .  A
C107        O109   1.267       .  A
C107        C341   1.483       .  S
C108        C301   1.478       .  S
C110        C281   1.482       .  S
Fe111       O127   2.038       .  S
Fe111       O117   2.124       .  S
Fe111       O124   2.104       .  S
Fe111       O116   2.009       .  S
Fe111       O122   1.927       .  S
Fe112       O115   2.044       .  S
Fe112       O119   2.135       .  S
Fe112       O123   2.035       .  S
Fe112       O128   2.133       .  S
Fe112       O122   1.937       .  S
Fe113       O131   2.112       .  S
Fe113       O118   2.035       .  S
Fe113       O125   2.036       .  S
Fe113       O114   2.118       .  S
Fe113       O122   1.926       .  S
O114        C121   1.278       .  A
O115        C129   1.270       .  A
O116        C121   1.258       .  A
O117        C120   1.281       .  A
O118        C130   1.263       .  A
O119        C132   1.282       .  A
C120        O125   1.265       .  A
C120        C201   1.483   1_455  S
C121        C330   1.479       .  S
O123        C126   1.266       .  A
O124        C126   1.279       .  A
C126        C241   1.488       .  S
O127        C132   1.266       .  A
O128        C130   1.281       .  A
C129        O131   1.282       .  A
C129        C270   1.479       .  S
C130        C221   1.493       .  S
C132        C450   1.499       .  S
Fe133       O149   2.039       .  S
Fe133       O139   2.119       .  S
Fe133       O146   2.096       .  S
Fe133       O138   2.008       .  S
Fe133       O144   1.926       .  S
Fe134       O137   2.039       .  S
Fe134       O141   2.139       .  S
Fe134       O145   2.045       .  S
Fe134       O150   2.130       .  S
Fe134       O144   1.935       .  S
Fe135       O153   2.114       .  S
Fe135       O140   2.040       .  S
Fe135       O147   2.046       .  S
Fe135       O136   2.127       .  S
Fe135       O144   1.932       .  S
O136        C143   1.279       .  A
O137        C151   1.270       .  A
O138        C143   1.259       .  A
O139        C142   1.280       .  A
O140        C152   1.266       .  A
O141        C154   1.285       .  A
C142        O147   1.267       .  A
C142        C230   1.487       .  S
C143        C190   1.478       .  S
O145        C148   1.267       .  A
O146        C148   1.276       .  A
C148        C310   1.483       .  S
O149        C154   1.268       .  A
O150        C152   1.281       .  A
C151        O153   1.281       .  A
C151        C290   1.483       .  S
C152        C210   1.491       .  S
C154        C410   1.503       .  S
Fe155       O171   2.088       .  S
Fe155       O161   2.033       .  S
Fe155       O168   2.039       .  S
Fe155       O160   2.101       .  S
Fe155       O166   1.936       .  S
Fe156       O159   2.118       .  S
Fe156       O163   2.048       .  S
Fe156       O167   2.128       .  S
Fe156       O172   2.043       .  S
Fe156       O166   1.939       .  S
Fe157       O175   2.027       .  S
Fe157       O162   2.097       .  S
Fe157       O169   2.114       .  S
Fe157       O158   2.050       .  S
Fe157       O166   1.939       .  S
O158        C165   1.265       .  A
O159        C173   1.281       .  A
O160        C165   1.274       .  A
O161        C164   1.265       .  A
O162        C174   1.276       .  A
O163        C176   1.264       .  A
C164        O169   1.279       .  A
C164        C181   1.469       .  S
C165        C350   1.487       .  S
O167        C170   1.285       .  A
O168        C170   1.270       .  A
C170        C390   1.483       .  S
O171        C176   1.271       .  A
O172        C174   1.266       .  A
C173        O175   1.267       .  A
C173        C370   1.490       .  S
C174        C250   1.489       .  S
C176        C261   1.486       .  S
C177        C178   1.409       .  A
C177        C182   1.395       .  A
C177        H187   1.082       .  S
C178        C183   1.491       .  S
C178        C179   1.410       .  A
C179        C180   1.397       .  A
C179        F184   1.357       .  S
C180        C181   1.403       .  A
C180        H185   1.084       .  S
C181        C182   1.401       .  A
C182        F186   1.355       .  S
C183        C188   1.406       .  A
C183        C192   1.413       .  A
C188        C189   1.390       .  A
C188        F193   1.357       .  S
C189        C190   1.408       .  A
C189        H194   1.083       .  S
C190        C191   1.404       .  A
C191        C192   1.404       .  A
C191        F195   1.357       .  S
C192        H196   1.082       .  S
C197        C198   1.406       .  A
C197        C202   1.399       .  A
C197        H207   1.084       .  S
C198        C203   1.497       .  S
C198        C199   1.412       .  A
C199        C200   1.405       .  A
C199        F204   1.357       .  S
C200        C201   1.404       .  A
C200        H205   1.085       .  S
C201        C202   1.408       .  A
C202        F206   1.358   1_655  S
C203        C208   1.407       .  A
C203        C212   1.410       .  A
C208        C209   1.399       .  A
C208        F213   1.357       .  S
C209        C210   1.408       .  A
C209        H214   1.084       .  S
C210        C211   1.408       .  A
C211        C212   1.406       .  A
C211        F215   1.357       .  S
C212        H216   1.084       .  S
C217        C218   1.409       .  A
C217        C222   1.406       .  A
C217        H227   1.084       .  S
C218        C223   1.493       .  S
C218        C219   1.405       .  A
C219        C220   1.399       .  A
C219        F224   1.358       .  S
C220        C221   1.411       .  A
C220        H225   1.084       .  S
C221        C222   1.408       .  A
C222        F226   1.357       .  S
C223        C228   1.409       .  A
C223        C232   1.405       .  A
C228        C229   1.403       .  A
C228        F233   1.357       .  S
C229        C230   1.406       .  A
C229        H234   1.085       .  S
C230        C231   1.410       .  A
C231        C232   1.402       .  A
C231        F235   1.358       .  S
C232        H236   1.084       .  S
C237        C238   1.399   1_565  A
C237        C242   1.397       .  A
C237        H247   1.085       .  S
C238        C243   1.481       .  S
C238        C239   1.407       .  A
C239        C240   1.400   1_545  A
C239        F244   1.357       .  S
C240        C241   1.406       .  A
C240        H245   1.084       .  S
C241        C242   1.415       .  A
C242        F246   1.358       .  S
C243        C248   1.407       .  A
C243        C252   1.399       .  A
C248        C249   1.401       .  A
C248        F253   1.357       .  S
C249        C250   1.407       .  A
C249        H254   1.084       .  S
C250        C251   1.415       .  A
C251        C252   1.396       .  A
C251        F255   1.357       .  S
C252        H256   1.084       .  S
C257        C258   1.405       .  A
C257        C262   1.398       .  A
C257        H267   1.083       .  S
C258        C263   1.485       .  S
C258        C259   1.405       .  A
C259        C260   1.400       .  A
C259        F264   1.357       .  S
C260        C261   1.409       .  A
C260        H265   1.083       .  S
C261        C262   1.409       .  A
C262        F266   1.357       .  S
C263        C268   1.408       .  A
C263        C272   1.404       .  A
C268        C269   1.398       .  A
C268        F273   1.357       .  S
C269        C270   1.404       .  A
C269        H274   1.084       .  S
C270        C271   1.409       .  A
C271        C272   1.400       .  A
C271        F275   1.358       .  S
C272        H276   1.083       .  S
C277        C278   1.402   1_545  A
C277        C282   1.397       .  A
C277        H287   1.085       .  S
C278        C283   1.479       .  S
C278        C279   1.405       .  A
C279        C280   1.400   1_565  A
C279        F284   1.357       .  S
C280        C281   1.407       .  A
C280        H285   1.084       .  S
C281        C282   1.410       .  A
C282        F286   1.357       .  S
C283        C288   1.403       .  A
C283        C292   1.404       .  A
C288        C289   1.395       .  A
C288        F293   1.358       .  S
C289        C290   1.407       .  A
C289        H294   1.084       .  S
C290        C291   1.410       .  A
C291        C292   1.402       .  A
C291        F295   1.357       .  S
C292        H296   1.084       .  S
C297        C298   1.402       .  A
C297        C302   1.397       .  A
C297        H307   1.084       .  S
C298        C303   1.481       .  S
C298        C299   1.407       .  A
C299        C300   1.399       .  A
C299        F304   1.358       .  S
C300        C301   1.406       .  A
C300        H305   1.085       .  S
C301        C302   1.407       .  A
C302        F306   1.357       .  S
C303        C308   1.407       .  A
C303        C312   1.402       .  A
C308        C309   1.401       .  A
C308        F313   1.358       .  S
C309        C310   1.407       .  A
C309        H314   1.084       .  S
C310        C311   1.409       .  A
C311        C312   1.397       .  A
C311        F315   1.357       .  S
C312        H316   1.085       .  S
C317        C318   1.405   1_655  A
C317        C322   1.392       .  A
C317        H327   1.083   1_545  S
C318        C323   1.485       .  S
C318        C319   1.411       .  A
C319        C320   1.399       .  A
C319        F324   1.357       .  S
C320        C321   1.402   1_455  A
C320        H325   1.084       .  S
C321        C322   1.403       .  A
C322        F326   1.358       .  S
C323        C328   1.412   1_545  A
C323        C332   1.400       .  A
C328        C329   1.400       .  A
C328        F333   1.357       .  S
C329        C330   1.401       .  A
C329        H334   1.083       .  S
C330        C331   1.414       .  A
C331        C332   1.391   1_565  A
C331        F335   1.359       .  S
C332        H336   1.082       .  S
C337        C338   1.402       .  A
C337        C342   1.397       .  A
C337        H347   1.083       .  S
C338        C343   1.487       .  S
C338        C339   1.410       .  A
C339        C340   1.403       .  A
C339        F344   1.357       .  S
C340        C341   1.405       .  A
C340        H345   1.083       .  S
C341        C342   1.411       .  A
C342        F346   1.358       .  S
C343        C348   1.406       .  A
C343        C352   1.405       .  A
C348        C349   1.399       .  A
C348        F353   1.358       .  S
C349        C350   1.407       .  A
C349        H354   1.084       .  S
C350        C351   1.409       .  A
C351        C352   1.401       .  A
C351        F355   1.357       .  S
C352        H356   1.084       .  S
C357        C358   1.404       .  A
C357        C362   1.397       .  A
C357        H367   1.083       .  S
C358        C363   1.477       .  S
C358        C359   1.401       .  A
C359        C360   1.397       .  A
C359        F364   1.357       .  S
C360        C361   1.410       .  A
C360        H365   1.083       .  S
C361        C362   1.410       .  A
C362        F366   1.358       .  S
C363        C368   1.398       .  A
C363        C372   1.407       .  A
C368        C369   1.390       .  A
C368        F373   1.358       .  S
C369        C370   1.411       .  A
C369        H374   1.083       .  S
C370        C371   1.410       .  A
C371        C372   1.406       .  A
C371        F375   1.357       .  S
C372        H376   1.083       .  S
C377        C378   1.410       .  A
C377        C382   1.407       .  A
C377        H387   1.084       .  S
C378        C383   1.494       .  S
C378        C379   1.405       .  A
C379        C380   1.398       .  A
C379        F384   1.357       .  S
C380        C381   1.408       .  A
C380        H385   1.084       .  S
C381        C382   1.408       .  A
C382        F386   1.357       .  S
C383        C388   1.406       .  A
C383        C392   1.411       .  A
C388        C389   1.399       .  A
C388        F393   1.357       .  S
C389        C390   1.407       .  A
C389        H394   1.084       .  S
C390        C391   1.405       .  A
C391        C392   1.405       .  A
C391        F395   1.357       .  S
C392        H396   1.083       .  S
C397        C398   1.412       .  A
C397        C402   1.409       .  A
C397        H407   1.082       .  S
C398        C403   1.504       .  S
C398        C399   1.407       .  A
C399        C400   1.401       .  A
C399        F404   1.357       .  S
C400        C401   1.410       .  A
C400        H405   1.083       .  S
C401        C402   1.409       .  A
C402        F406   1.357       .  S
C403        C408   1.406       .  A
C403        C412   1.413       .  A
C408        C409   1.400       .  A
C408        F413   1.357       .  S
C409        C410   1.412       .  A
C409        H414   1.082       .  S
C410        C411   1.410       .  A
C411        C412   1.410       .  A
C411        F415   1.357       .  S
C412        H416   1.082       .  S
C417        C418   1.412   1_554  A
C417        C422   1.404   1_554  A
C417        H427   1.083       .  S
C418        C423   1.487       .  S
C418        C419   1.403       .  A
C419        C420   1.391       .  A
C419        F424   1.358       .  S
C420        C421   1.409       .  A
C420        H425   1.084       .  S
C421        C422   1.404       .  A
C422        F426   1.357   1_556  S
C423        C428   1.409   1_556  A
C423        C432   1.407   1_556  A
C428        C429   1.398       .  A
C428        F433   1.358   1_554  S
C429        C430   1.402       .  A
C429        H434   1.084       .  S
C430        C431   1.403       .  A
C431        C432   1.398       .  A
C431        F435   1.358       .  S
C432        H436   1.083   1_554  S
C437        C438   1.404       .  A
C437        C442   1.404       .  A
C437        H447   1.082       .  S
C438        C443   1.503       .  S
C438        C439   1.414   1_455  A
C439        C440   1.405       .  A
C439        F444   1.357       .  S
C440        C441   1.405       .  A
C440        H445   1.083       .  S
C441        C442   1.418   1_655  A
C442        F446   1.358       .  S
C443        C448   1.415       .  A
C443        C452   1.403       .  A
C448        C449   1.411       .  A
C448        F453   1.357       .  S
C449        C450   1.408       .  A
C449        H454   1.083       .  S
C450        C451   1.414       .  A
C451        C452   1.396       .  A
C451        F455   1.358       .  S
C452        H456   1.082   1_455  S
C457        C458   1.398       .  A
C457        C462   1.396       .  A
C457        H467   1.082       .  S
C458        C463   1.477   1_554  S
C458        C459   1.405       .  A
C459        C460   1.402       .  A
C459        F464   1.358       .  S
C460        C461   1.408       .  A
C460        H465   1.082       .  S
C461        C462   1.414       .  A
C462        F466   1.358   1_455  S
C463        C468   1.401       .  A
C463        C472   1.405       .  A
C468        C469   1.395       .  A
C468        F473   1.358   1_556  S
C469        C470   1.408       .  A
C469        H474   1.083       .  S
C470        C471   1.407       .  A
C471        C472   1.402       .  A
C471        F475   1.357       .  S
C472        H476   1.083       .  S
C477        C478   1.409       .  A
C477        C482   1.407       .  A
C477        H487   1.083       .  S
C478        C483   1.492   1_554  S
C478        C479   1.405       .  A
C479        C480   1.396       .  A
C479        F484   1.358   1_554  S
C480        C481   1.408       .  A
C480        H485   1.084       .  S
C481        C482   1.408       .  A
C482        F486   1.357       .  S
C483        C488   1.410       .  A
C483        C492   1.404       .  A
C488        C489   1.405       .  A
C488        F493   1.357       .  S
C489        C490   1.406       .  A
C489        H494   1.083       .  S
C490        C491   1.412       .  A
C491        C492   1.398       .  A
C491        F495   1.358       .  S
C492        H496   1.083       .  S
C497        C498   1.406       .  A
C497        C502   1.402       .  A
C497        H507   1.084       .  S
C498        C503   1.491       .  S
C498        C499   1.409       .  A
C499        C500   1.401       .  A
C499        F504   1.357       .  S
C500        C501   1.405       .  A
C500        H505   1.084       .  S
C501        C502   1.408       .  A
C502        F506   1.357       .  S
C503        C508   1.409       .  A
C503        C512   1.404       .  A
C508        C509   1.403   1_545  A
C508        F513   1.358       .  S
C509        C510   1.407       .  A
C509        H514   1.084       .  S
C510        C511   1.411       .  A
C511        C512   1.400   1_565  A
C511        F515   1.357       .  S
C512        H516   1.084       .  S
C517        C518   1.405       .  A
C517        C522   1.406       .  A
C517        H527   1.084       .  S
C518        C523   1.486       .  S
C518        C519   1.403       .  A
C519        C520   1.399       .  A
C519        F524   1.357       .  S
C520        C521   1.410       .  A
C520        H525   1.083       .  S
C521        C522   1.413       .  A
C522        F526   1.357       .  S
C523        C528   1.407       .  A
C523        C532   1.402       .  A
C528        C529   1.405       .  A
C528        F533   1.357       .  S
C529        C530   1.409       .  A
C529        H534   1.084       .  S
C530        C531   1.411       .  A
C531        C532   1.400       .  A
C531        F535   1.357       .  S
C532        H536   1.084       .  S
C537        C538   1.410       .  A
C537        C542   1.406       .  A
C537        H547   1.084       .  S
C538        C543   1.488   1_655  S
C538        C539   1.402   1_655  A
C539        C540   1.397   1_455  A
C539        F544   1.357       .  S
C540        C541   1.407       .  A
C540        H545   1.084   1_655  S
C541        C542   1.406       .  A
C542        F546   1.357       .  S
C543        C548   1.402       .  A
C543        C552   1.410       .  A
C548        C549   1.395       .  A
C548        F553   1.357   1_455  S
C549        C550   1.408       .  A
C549        H554   1.084       .  S
C550        C551   1.407       .  A
C551        C552   1.406       .  A
C551        F555   1.357       .  S
C552        H556   1.084       .  S
C557        C558   1.407   1_455  A
C557        C562   1.395       .  A
C557        H567   1.083       .  S
C558        C563   1.486   1_556  S
C558        C559   1.410       .  A
C559        C560   1.398   1_655  A
C559        F564   1.357       .  S
C560        C561   1.401       .  A
C560        H565   1.082   1_455  S
C561        C562   1.402       .  A
C562        F566   1.358       .  S
C563        C568   1.413   1_544  A
C563        C572   1.402       .  A
C568        C569   1.401   1_556  A
C568        F573   1.358   1_655  S
C569        C570   1.401       .  A
C569        H574   1.083   1_554  S
C570        C571   1.409       .  A
C571        C572   1.392   1_565  A
C571        F575   1.358       .  S
C572        H576   1.082       .  S
C577        C578   1.407       .  A
C577        C582   1.402       .  A
C577        H587   1.083       .  S
C578        C583   1.488       .  S
C578        C579   1.404       .  A
C579        C580   1.399       .  A
C579        F584   1.358       .  S
C580        C581   1.413       .  A
C580        H585   1.083       .  S
C581        C582   1.408       .  A
C582        F586   1.357       .  S
C583        C588   1.403       .  A
C583        C592   1.407       .  A
C588        C589   1.397       .  A
C588        F593   1.357       .  S
C589        C590   1.410       .  A
C589        H594   1.083       .  S
C590        C591   1.411       .  A
C591        C592   1.404       .  A
C591        F595   1.357       .  S
C592        H596   1.083       .  S
C597        C598   1.403       .  A
C597        C602   1.402   1_565  A
C597        H607   1.084       .  S
C598        C603   1.475       .  S
C598        C599   1.399   1_565  A
C599        C600   1.395       .  A
C599        F604   1.357       .  S
C600        C601   1.409       .  A
C600        H605   1.083       .  S
C601        C602   1.412       .  A
C602        F606   1.358       .  S
C603        C608   1.403       .  A
C603        C612   1.399       .  A
C608        C609   1.400       .  A
C608        F613   1.357       .  S
C609        C610   1.408       .  A
C609        H614   1.083       .  S
C610        C611   1.413       .  A
C611        C612   1.397       .  A
C611        F615   1.358       .  S
C612        H616   1.084       .  S
C617        C618   1.410   1_556  A
C617        C622   1.404       .  A
C617        H627   1.083       .  S
C618        C623   1.490       .  S
C618        C619   1.403       .  A
C619        C620   1.395   1_554  A
C619        F624   1.358       .  S
C620        C621   1.412       .  A
C620        H625   1.083       .  S
C621        C622   1.408       .  A
C622        F626   1.357       .  S
C623        C628   1.405       .  A
C623        C632   1.409       .  A
C628        C629   1.397       .  A
C628        F633   1.358       .  S
C629        C630   1.409       .  A
C629        H634   1.083       .  S
C630        C631   1.406       .  A
C631        C632   1.401       .  A
C631        F635   1.357       .  S
C632        H636   1.082       .  S
C637        C638   1.402       .  A
C637        C642   1.396   1_556  A
C637        H647   1.084       .  S
C638        C643   1.484       .  S
C638        C639   1.410   1_556  A
C639        C640   1.403       .  A
C639        F644   1.358       .  S
C640        C641   1.405       .  A
C640        H645   1.084       .  S
C641        C642   1.408       .  A
C642        F646   1.358       .  S
C643        C648   1.406       .  A
C643        C652   1.403       .  A
C648        C649   1.400       .  A
C648        F653   1.358       .  S
C649        C650   1.408       .  A
C649        H654   1.084       .  S
C650        C651   1.411       .  A
C651        C652   1.398       .  A
C651        F655   1.357       .  S
C652        H656   1.084       .  S
