geometry optimzed in LAMMPS
_audit_creation_date              2020-12-01 
_audit_creation_method            'lammps2cif' 
_symmetry_space_group_name_H-M    'P1' 
_symmetry_Int_Tables_number       1 
_symmetry_cell_setting            triclinic 
loop_ 
_symmetry_equiv_pos_as_xyz 
  x,y,z 
_cell_length_a                    44.95684742 
_cell_length_b                    24.985679277489304 
_cell_length_c                    41.956464480928176 
_cell_angle_alpha                 90.02492105125687 
_cell_angle_beta                  88.68609895863318 
_cell_angle_gamma                 91.41388932250796 
loop_ 
_atom_site_label 
_atom_site_type_symbol 
_atom_site_fract_x 
_atom_site_fract_y 
_atom_site_fract_z 
_atom_site_charge 
O1          O  0.06658764  0.12293389  0.86101210    -0.85900
O2          O  0.04601879  0.12224813  0.92226204    -0.82900
C3          C  0.03959312  0.13595736  0.95032942     0.97600
O4          O  0.04017553  0.18504143  0.95816097    -0.83000
O5          O  0.09782118  0.22091998  0.95164158    -0.85600
C6          C  0.12271315  0.23178395  0.93874865     1.02100
O7          O  0.12468989  0.24547695  0.90962952    -0.78400
O8          O  0.10885173  0.15665818  0.87683385    -0.78600
C9          C  0.09350545  0.11675425  0.86832946     1.02000
O10         O  0.02746894  0.21170930  0.84900127    -0.85900
O11         O  0.00310362  0.20142142  0.91003823    -0.83000
C12         C  0.00014485  0.24725318  0.92253793     0.97600
O13         O  0.02225032  0.27871816  0.92463394    -0.83000
O14         O  0.07994425  0.31860766  0.92213619    -0.85600
C15         C  0.08632801  0.33788690  0.89473921     1.02100
O16         O  0.08708466  0.30802690  0.87046833    -0.78400
O17         O  0.07391321  0.22002875  0.83222541    -0.78600
C18         C  0.04610162  0.22091175  0.82671523     1.02000
Cr19       Cr  0.03776048  0.16864778  0.88622292     1.93700
Cr20       Cr  0.06041408  0.24863218  0.93615921     1.93200
Cr21       Cr  0.09616750  0.23132796  0.87378678     1.39100
O22         O  0.06462479  0.21698940  0.89862044    -1.23600
O23         O  0.40146338  0.87405502  0.11622960    -0.85900
O24         O  0.38505543  0.78205751  0.08711644    -0.82900
C25         C  0.38779379  0.79401188  0.05782982     0.97600
O26         O  0.41303810  0.80232667  0.04514563    -0.83000
O27         O  0.47152362  0.83403719  0.03863157    -0.85600
C28         C  0.47282625  0.88371872  0.04513460     1.02100
O29         O  0.46553459  0.89984121  0.07242367    -0.78400
O30         O  0.44389932  0.90631707  0.13261549    -0.78600
C31         C  0.41732432  0.91363006  0.12418274     1.02000
O32         O  0.43414576  0.81450264  0.16435329    -0.85900
O33         O  0.42088128  0.72314899  0.12983065    -0.83000
C34         C  0.42224618  0.69045877  0.10696777     0.97600
O35         O  0.42851291  0.70636296  0.07876626    -0.83000
O36         O  0.48636158  0.74208768  0.07615956    -0.85600
C37         C  0.00494482  0.77404188  0.07193998     1.02100
O38         O  0.00239836  0.81978915  0.08453001    -0.78400
O39         O  0.48086948  0.81555275  0.14815046    -0.78600
C40         C  0.46165377  0.80990602  0.17021901     1.02000
Cr41       Cr  0.41279355  0.79934188  0.12290182     1.93700
Cr42       Cr  0.44941584  0.77361936  0.06233225     1.93200
Cr43       Cr  0.47250710  0.85653763  0.10979277     1.39100
O44         O  0.44501687  0.80910718  0.09842648    -1.23600
O45         O  0.15401260  0.66057464  0.88404833    -0.85900
O46         O  0.13693913  0.74961096  0.91603260    -0.82900
C47         C  0.13667902  0.73789734  0.94553129     0.97600
O48         O  0.16036446  0.72743440  0.95927390    -0.83000
O49         O  0.21714878  0.69370057  0.96871000    -0.85600
C50         C  0.21681699  0.64423725  0.96132678     1.02100
O51         O  0.21028185  0.63023073  0.93358049    -0.78400
O52         O  0.19719062  0.62935565  0.87052482    -0.78600
C53         C  0.16953979  0.62188483  0.87546204     1.02000
O54         O  0.19455686  0.72536464  0.84146324    -0.85900
O55         O  0.17835354  0.81282560  0.87800233    -0.83000
C56         C  0.17653227  0.84325377  0.90189921     0.97600
O57         O  0.18121470  0.82543802  0.92973025    -0.83000
O58         O  0.23869832  0.78788435  0.93480354    -0.85600
C59         C  0.26029618  0.75684102  0.93345286     1.02100
O60         O  0.25679588  0.70951434  0.92314396    -0.78400
O61         O  0.23860544  0.71867206  0.86238029    -0.78600
C62         C  0.22296565  0.72745054  0.83867559     1.02000
Cr63       Cr  0.16815387  0.73593244  0.88150792     1.93700
Cr64       Cr  0.19915984  0.75651089  0.94530560     1.93200
Cr65       Cr  0.22377472  0.67553718  0.89799201     1.39100
O66         O  0.19713916  0.72362527  0.90811098    -1.23600
O67         O  0.31374435  0.39750014  0.13060673    -0.85900
O68         O  0.29850074  0.40467187  0.06838945    -0.82900
C69         C  0.29221074  0.39335678  0.04015929     0.97600
O70         O  0.29375583  0.34515404  0.03046548    -0.83000
O71         O  0.35138516  0.31382180  0.03790953    -0.85600
C72         C  0.37520695  0.30101397  0.05058401     1.02100
O73         O  0.37531124  0.28531167  0.07938338    -0.78400
O74         O  0.35737982  0.36951484  0.11557017    -0.78600
C75         C  0.34139356  0.40642383  0.12593691     1.02000
O76         O  0.27403267  0.30411358  0.13554171    -0.85900
O77         O  0.25430869  0.32032995  0.07560762    -0.83000
C78         C  0.25178906  0.27482227  0.06239277     0.97600
O79         O  0.27410380  0.24569183  0.05919667    -0.83000
O80         O  0.33225129  0.21052803  0.06269829    -0.85600
C81         C  0.33663304  0.18955719  0.08983331     1.02100
O82         O  0.33422295  0.21709884  0.11486079    -0.78400
O83         O  0.31851962  0.29922023  0.15548420    -0.78600
C84         C  0.29029004  0.29402360  0.15855468     1.02000
Cr85       Cr  0.28715783  0.35324695  0.10184551     1.93700
Cr86       Cr  0.31311795  0.28063740  0.05044282     1.93200
Cr87       Cr  0.34416236  0.29403790  0.11470035     1.39100
O88         O  0.31475452  0.30867313  0.08900965    -1.23600
O89         O  0.44134434  0.11215607  0.62369384    -0.85900
O90         O  0.46270708  0.11881429  0.56389964    -0.82900
C91         C  0.47015434  0.13325802  0.53627082     0.97600
O92         O  0.46750270  0.18180985  0.52797887    -0.83000
O93         O  0.40757173  0.20197728  0.53385223    -0.85600
C94         C  0.38212892  0.20788077  0.54612269     1.02100
O95         O  0.37926944  0.22213744  0.57508610    -0.78400
O96         O  0.39823641  0.13596781  0.60671454    -0.78600
C97         C  0.41513345  0.09971123  0.61520186     1.02000
O98         O  0.47553937  0.21008202  0.63783592    -0.85900
O99         O  0.01108878  0.21419019  0.57785846    -0.83000
C100        C  0.01192359  0.26085712  0.56579999     0.97600
O101        O  0.47937160  0.27995698  0.56145308    -0.83000
O102        O  0.41964161  0.30394658  0.56469003    -0.85600
C103        C  0.41251840  0.32104071  0.59242791     1.02100
O104        O  0.41304323  0.29055354  0.61638109    -0.78400
O105        O  0.42891246  0.20367395  0.65392113    -0.78600
C106        C  0.45642057  0.21087903  0.66015630     1.02000
Cr107      Cr  0.46842444  0.16583270  0.60007341     1.93700
Cr108      Cr  0.44307350  0.23969760  0.54988189     1.93200
Cr109      Cr  0.40734280  0.21268895  0.61161390     1.39100
O110        O  0.43987175  0.20727464  0.58739807    -1.23600
O111        O  0.11372119  0.84583020  0.37550769    -0.85900
O112        O  0.12314343  0.75919198  0.41115091    -0.82900
C113        C  0.12194554  0.77631678  0.43972085     0.97600
O114        O  0.09791920  0.79174834  0.45204665    -0.83000
O115        O  0.04101878  0.82848331  0.45776756    -0.85600
C116        C  0.04360711  0.87760865  0.44997880     1.02100
O117        O  0.05198842  0.89005410  0.42220474    -0.78400
O118        O  0.07338531  0.88606808  0.36165811    -0.78600
C119        C  0.10093831  0.88783632  0.36789837     1.02000
O120        O  0.07483673  0.78632156  0.33281510    -0.85900
O121        O  0.08028059  0.69956340  0.37281873    -0.83000
C122        C  0.08212728  0.67161679  0.39756083     0.97600
O123        O  0.07840020  0.69289557  0.42479308    -0.83000
O124        O  0.02183189  0.73363927  0.42362401    -0.85600
C125        C  0.00067594  0.76512093  0.42120198     1.02100
O126        O  0.00521174  0.81186353  0.40986673    -0.78400
O127        O  0.02931888  0.80039035  0.34986114    -0.78600
C128        C  0.04708897  0.78802938  0.32771054     1.02000
Cr129      Cr  0.09582691  0.77397834  0.37447184     1.93700
Cr130      Cr  0.06003568  0.76365369  0.43688035     1.93200
Cr131      Cr  0.04163223  0.84340842  0.38648243     1.39100
O132        O  0.06589845  0.79378062  0.39923954    -1.23600
O133        O  0.35060034  0.63709216  0.61634543    -0.85900
O134        O  0.36977801  0.71917980  0.57873352    -0.82900
C135        C  0.36905067  0.70263584  0.55007806     0.97600
O136        O  0.34469212  0.68992005  0.53760525    -0.83000
O137        O  0.28563318  0.65730097  0.53292478    -0.85600
C138        C  0.28194752  0.60977181  0.54347488     1.02100
O139        O  0.28822319  0.59878021  0.57165753    -0.78400
O140        O  0.30680026  0.60791115  0.63263581    -0.78600
C141        C  0.33389478  0.59925158  0.62593936     1.02000
O142        O  0.31460148  0.70884932  0.65678526    -0.85900
O143        O  0.33154827  0.78919369  0.61406275    -0.83000
C144        C  0.33385974  0.81529532  0.58840427     0.97600
O145        O  0.32829881  0.79287429  0.56189527    -0.83000
O146        O  0.26945699  0.75733596  0.56153753    -0.85600
C147        C  0.24635630  0.72848490  0.56557648     1.02100
O148        O  0.24772941  0.68362259  0.57940738    -0.78400
O149        O  0.26974936  0.70201007  0.63790520    -0.78600
C150        C  0.28651513  0.71344107  0.66043154     1.02000
Cr151      Cr  0.33932190  0.71217359  0.61502040     1.93700
Cr152      Cr  0.30720839  0.72243002  0.55140776     1.93200
Cr153      Cr  0.28036168  0.65160540  0.60469954     1.39100
O154        O  0.30903823  0.69566716  0.59026048    -1.23600
O155        O  0.20486223  0.40349995  0.40239906    -0.85900
O156        O  0.23233456  0.34176180  0.44610537    -0.82900
C157        C  0.21131098  0.35094578  0.46524945     0.97600
O158        O  0.18833445  0.32052226  0.46513387    -0.83000
O159        O  0.14355132  0.26120561  0.43532269    -0.85600
C160        C  0.13025964  0.30396103  0.43117304     1.02100
O161        O  0.13675953  0.33181336  0.40676949    -0.78400
O162        O  0.17490017  0.38273241  0.36406622    -0.78600
C163        C  0.18391318  0.41591117  0.38456595     1.02000
O164        O  0.22974276  0.33747572  0.35271126    -0.85900
O165        O  0.25286672  0.27114548  0.39980856    -0.83000
C166        C  0.25268173  0.24354577  0.42525258     0.97600
O167        O  0.22928154  0.23988411  0.44250934    -0.83000
O168        O  0.18381005  0.19125741  0.40775266    -0.85600
C169        C  0.16331024  0.18755809  0.38742865     1.02100
O170        O  0.15152289  0.22935443  0.37668874    -0.78400
O171        O  0.19396692  0.28167640  0.33840220    -0.78600
C172        C  0.21908652  0.30451320  0.33296444     1.02000
Cr173      Cr  0.22755159  0.33607040  0.39983355     1.93700
Cr174      Cr  0.18696027  0.25599240  0.43557473     1.93200
Cr175      Cr  0.16612641  0.30553428  0.37337098     1.39100
O176        O  0.19399156  0.29780419  0.40219681    -1.23600
C177        C  0.26740046  0.56790871  0.52419567    -0.05800
C178        C  0.27044963  0.56863369  0.49094887    -0.05700
C179        C  0.25741865  0.52790817  0.47293689    -0.23900
C180        C  0.24080108  0.48644799  0.48796835     0.18300
C181        C  0.23580526  0.48692953  0.52120334     0.15600
C182        C  0.24938708  0.52768234  0.53923706    -0.18900
C183        C  0.21835539  0.44548685  0.53565913    -0.20700
C184        C  0.20777970  0.40197760  0.51743310    -0.13300
C185        C  0.21487767  0.39969003  0.48478305     0.03400
C186        C  0.23054940  0.44301156  0.47029384    -0.25400
H187        H  0.28363556  0.59980527  0.47900211     0.08500
H188        H  0.26092279  0.52811915  0.44729611     0.12100
H189        H  0.24617665  0.52788698  0.56492564     0.12000
H190        H  0.21395586  0.44566234  0.56114915     0.11800
H191        H  0.19588757  0.36893393  0.52906785     0.12300
H192        H  0.23657748  0.44151282  0.44519348     0.14200
C193        C  0.47580965  0.74750668  0.44535509    -0.05800
C194        C  0.44854771  0.76188021  0.43265776    -0.05700
C195        C  0.42182355  0.75076405  0.44948211    -0.23900
C196        C  0.42208364  0.72719717  0.47988866     0.18300
C197        C  0.44941667  0.71232567  0.49279832     0.15600
C198        C  0.47596350  0.72121438  0.47506688    -0.18900
C199        C  0.44990003  0.69151605  0.52389729    -0.20700
C200        C  0.42370287  0.68761368  0.54254848    -0.13300
C201        C  0.39648009  0.70248076  0.52997400     0.03400
C202        C  0.39570427  0.72080565  0.49826557    -0.25400
H203        H  0.44798988  0.78241034  0.40995987     0.08500
H204        H  0.40106276  0.76265187  0.43930580     0.12100
H205        H  0.49698382  0.71099111  0.48537877     0.12000
H206        H  0.47069819  0.68011329  0.53419947     0.11800
H207        H  0.42468975  0.67326578  0.56685204     0.12300
H208        H  0.37478250  0.73303448  0.48855534     0.14200
C209        C  0.21893075  0.74256375  0.54941514    -0.05800
C210        C  0.19126103  0.72077638  0.55962476    -0.05700
C211        C  0.16629809  0.72565911  0.54070938    -0.23900
C212        C  0.16896548  0.75078296  0.51084006     0.18300
C213        C  0.19670118  0.77305304  0.50046299     0.15600
C214        C  0.22127670  0.77006338  0.52019981    -0.18900
C215        C  0.19974253  0.79581108  0.46991903    -0.20700
C216        C  0.17553334  0.79587407  0.44962337    -0.13300
C217        C  0.14791414  0.77462325  0.46003525     0.03400
C218        C  0.14460312  0.75265426  0.49075419    -0.25400
H219        H  0.18915877  0.69869393  0.58181952     0.08500
H220        H  0.14522556  0.70805445  0.54886310     0.12100
H221        H  0.24272252  0.78569417  0.51173447     0.12000
H222        H  0.22091259  0.81270774  0.46157524     0.11800
H223        H  0.17818698  0.81334553  0.42606681     0.12300
H224        H  0.12321931  0.73583791  0.49863730     0.14200
C225        C  0.11843094  0.93895803  0.36861432    -0.05800
C226        C  0.14609520  0.94045316  0.38385188    -0.05700
C227        C  0.16121935  0.98891619  0.38934341    -0.23900
C228        C  0.14919443  0.03709974  0.37947805     0.18300
C229        C  0.12218709  0.03595669  0.36273698     0.15600
C230        C  0.10687950  0.98699999  0.35753362    -0.18900
C231        C  0.11044662  0.08402908  0.35233755    -0.20700
C232        C  0.12461414  0.13275103  0.35947199    -0.13300
C233        C  0.15075928  0.13473781  0.37742111     0.03400
C234        C  0.16326714  0.08641587  0.38685081    -0.25400
H235        H  0.15560204  0.90415948  0.39284013     0.08500
H236        H  0.18194967  0.98876079  0.40200117     0.12100
H237        H  0.08567218  0.98649863  0.34576381     0.12000
H238        H  0.08996178  0.08407557  0.33924848     0.11800
H239        H  0.11443323  0.16916473  0.35164861     0.12300
H240        H  0.18347392  0.08717412  0.40045613     0.14200
C241        C  0.09387082  0.61723635  0.39453425    -0.05800
C242        C  0.08489754  0.58317692  0.36973412    -0.05700
C243        C  0.10031887  0.53627261  0.36305110    -0.23900
C244        C  0.12570632  0.52390442  0.38024935     0.18300
C245        C  0.13473343  0.55800760  0.40530765     0.15600
C246        C  0.11832519  0.60358007  0.41282174    -0.18900
C247        C  0.16069332  0.54716007  0.42168828    -0.20700
C248        C  0.17744131  0.50264988  0.41360862    -0.13300
C249        C  0.16842948  0.46733544  0.38938235     0.03400
C250        C  0.14245711  0.47855305  0.37260244    -0.25400
H251        H  0.06641329  0.59363597  0.35502950     0.08500
H252        H  0.09306352  0.51077207  0.34370053     0.12100
H253        H  0.12588191  0.63053895  0.43138948     0.12000
H254        H  0.16812569  0.57321718  0.44070642     0.11800
H255        H  0.19722608  0.49539665  0.42689889     0.12300
H256        H  0.13502768  0.45169673  0.35395543     0.14200
C257        C  0.40388976  0.04332833  0.61395437    -0.05800
C258        C  0.41659813  0.00274205  0.63185851    -0.05700
C259        C  0.40510619  0.95008562  0.63059733    -0.23900
C260        C  0.38110004  0.93695530  0.61089469     0.18300
C261        C  0.36896841  0.97698252  0.59176309     0.15600
C262        C  0.38019668  0.02984168  0.59367015    -0.18900
C263        C  0.34581745  0.96345806  0.57102354    -0.20700
C264        C  0.33451571  0.91075571  0.56956259    -0.13300
C265        C  0.34561341  0.87113520  0.58941156     0.03400
C266        C  0.36904462  0.88450644  0.60994959    -0.25400
H267        H  0.43505148  0.01190561  0.64725959     0.08500
H268        H  0.41494186  0.91966624  0.64506965     0.12100
H269        H  0.37063911  0.06046305  0.57906496     0.12000
H270        H  0.33649892  0.99360031  0.55592582     0.11800
H271        H  0.31672522  0.90113353  0.55337074     0.12300
H272        H  0.37821304  0.85380991  0.62478625     0.14200
C273        C  0.40189627  0.37638860  0.59647356    -0.05800
C274        C  0.41143805  0.41648938  0.57492172    -0.05700
C275        C  0.40079955  0.46833282  0.57772047    -0.23900
C276        C  0.37981207  0.48076964  0.60166130     0.18300
C277        C  0.36953429  0.44080758  0.62328178     0.15600
C278        C  0.38105821  0.38895394  0.62090315    -0.18900
C279        C  0.34748677  0.45332853  0.64631390    -0.20700
C280        C  0.33557694  0.50481093  0.64759184    -0.13300
C281        C  0.34621521  0.54483773  0.62649832     0.03400
C282        C  0.36852078  0.53239437  0.60379057    -0.25400
H283        H  0.42730179  0.40775425  0.55592543     0.08500
H284        H  0.40867546  0.49856414  0.56082736     0.12100
H285        H  0.37312735  0.35803930  0.63734011     0.12000
H286        H  0.33913705  0.42311218  0.66296623     0.11800
H287        H  0.31828269  0.51344261  0.66510705     0.12300
H288        H  0.37646330  0.56266013  0.58690633     0.14200
C289        C  0.03393651  0.92085362  0.47175771    -0.05800
C290        C  0.02003825  0.90865179  0.50123725    -0.05700
C291        C  0.50126001  0.94825788  0.52216877    -0.23900
C292        C  0.50151275  0.00122055  0.51102804     0.18300
C293        C  0.02221803  0.01525575  0.47947115     0.15600
C294        C  0.03560107  0.97469855  0.46142768    -0.18900
C295        C  0.02262310  0.06856529  0.46863033    -0.20700
C296        C  0.50245982  0.10774964  0.48920522    -0.13300
C297        C  0.48469144  0.09303763  0.51585668     0.03400
C298        C  0.48411432  0.03939080  0.52626337    -0.25400
H299        H  0.01835107  0.86770267  0.50968135     0.08500
H300        H  0.48781076  0.93649935  0.54288106     0.12100
H301        H  0.04630732  0.98486685  0.43875178     0.12000
H302        H  0.03392473  0.07940018  0.44639950     0.11800
H303        H  0.50375692  0.14897070  0.48120466     0.12300
H304        H  0.47059847  0.02735444  0.54689800     0.14200
C305        C  0.35575312  0.20095449  0.52589183    -0.05800
C306        C  0.32769892  0.18928708  0.53983482    -0.05700
C307        C  0.30237095  0.18724620  0.52120284    -0.23900
C308        C  0.30455445  0.19857097  0.48845784     0.18300
C309        C  0.33266025  0.20900141  0.47386390     0.15600
C310        C  0.35823866  0.20878810  0.49258299    -0.18900
C311        C  0.33438709  0.22270748  0.44130805    -0.20700
C312        C  0.30835937  0.23050048  0.42415895    -0.13300
C313        C  0.28029139  0.22270583  0.43903856     0.03400
C314        C  0.27882090  0.20348432  0.47070499    -0.25400
H315        H  0.32531095  0.18249686  0.56527021     0.08500
H316        H  0.28088424  0.17921306  0.53269006     0.12100
H317        H  0.37980852  0.21799436  0.48157461     0.12000
H318        H  0.35580003  0.23061264  0.42965927     0.11800
H319        H  0.31019259  0.24516991  0.39989787     0.12300
H320        H  0.25743307  0.19688557  0.48271891     0.14200
C321        C  0.03958328  0.28258465  0.55062267    -0.05800
C322        C  0.06712384  0.26172633  0.55846848    -0.05700
C323        C  0.09192723  0.27043345  0.53841465    -0.23900
C324        C  0.08917575  0.29835273  0.50966928     0.18300
C325        C  0.06216797  0.32260506  0.50244064     0.15600
C326        C  0.03772377  0.31598703  0.52359883    -0.18900
C327        C  0.05940871  0.34873239  0.47290857    -0.20700
C328        C  0.08228741  0.34632859  0.44960246    -0.13300
C329        C  0.10820204  0.31863709  0.45603737     0.03400
C330        C  0.11216423  0.29804813  0.48684876    -0.25400
H331        H  0.06903539  0.23610801  0.57909799     0.08500
H332        H  0.11267358  0.25186950  0.54420147     0.12100
H333        H  0.01647409  0.33197129  0.51715116     0.12000
H334        H  0.03886771  0.36793759  0.46709542     0.11800
H335        H  0.07901969  0.36309166  0.42618693     0.12300
H336        H  0.13249888  0.27776250  0.49233195     0.14200
C337        C  0.27513899  0.28065170  0.18933668    -0.05800
C338        C  0.24493146  0.26401277  0.18956338    -0.05700
C339        C  0.22825891  0.26085411  0.21800373    -0.23900
C340        C  0.24135317  0.27477062  0.24685857     0.18300
C341        C  0.27207697  0.28895368  0.24708561     0.15600
C342        C  0.28888886  0.29109476  0.21840323    -0.18900
C343        C  0.28516273  0.30345237  0.27580894    -0.20700
C344        C  0.26778751  0.30656355  0.30364562    -0.13300
C345        C  0.23696532  0.29479286  0.30354299     0.03400
C346        C  0.22400468  0.27710441  0.27519535    -0.25400
H347        H  0.23379538  0.25527877  0.16746038     0.08500
H348        H  0.20486546  0.24956116  0.21724588     0.12100
H349        H  0.31203821  0.30426201  0.21852803     0.12000
H350        H  0.30864515  0.31405896  0.27658598     0.11800
H351        H  0.27850559  0.31930047  0.32533475     0.12300
H352        H  0.20033990  0.26780266  0.27484267     0.14200
C353        C  0.27173447  0.72805307  0.69117044    -0.05800
C354        C  0.24051024  0.73337470  0.69211376    -0.05700
C355        C  0.22479894  0.73826516  0.72092152    -0.23900
C356        C  0.23987317  0.73843133  0.74962165     0.18300
C357        C  0.27137799  0.73674485  0.74902895     0.15600
C358        C  0.28719162  0.73170094  0.71980040    -0.18900
C359        C  0.28641074  0.73781870  0.77780796    -0.20700
C360        C  0.27043028  0.73753233  0.80672309    -0.13300
C361        C  0.23898332  0.73595248  0.80764424     0.03400
C362        C  0.22385645  0.73810695  0.77885466    -0.25400
H363        H  0.22782695  0.73168459  0.67048011     0.08500
H364        H  0.20075785  0.74022277  0.72075663     0.12100
H365        H  0.31116433  0.72808596  0.71950743     0.12000
H366        H  0.31049069  0.73722505  0.77800631     0.11800
H367        H  0.28289911  0.73669316  0.82849867     0.12300
H368        H  0.19974218  0.73727090  0.77912574     0.14200
C369        C  0.22812188  0.60279830  0.98285226    -0.05800
C370        C  0.24174742  0.61657653  0.01160994    -0.05700
C371        C  0.25739857  0.57834036  0.02845097    -0.23900
C372        C  0.26001505  0.52603247  0.01651835     0.18300
C373        C  0.24571017  0.51152482  0.98811350     0.15600
C374        C  0.22947140  0.54954543  0.97188786    -0.18900
C375        C  0.24846524  0.45955974  0.97588721    -0.20700
C376        C  0.26502074  0.42184067  0.99187918    -0.13300
C377        C  0.27903999  0.43537432  0.02042963     0.03400
C378        C  0.27664616  0.48794791  0.03243913    -0.25400
H379        H  0.24130814  0.65731251  0.02041135     0.08500
H380        H  0.26815865  0.59006968  0.05031374     0.12100
H381        H  0.21910491  0.53810611  0.94973341     0.12000
H382        H  0.23761662  0.44794973  0.95405150     0.11800
H383        H  0.26603236  0.38157099  0.98243024     0.12300
H384        H  0.28712030  0.49896109  0.05460419     0.14200
C385        C  0.47201229  0.80113721  0.20309116    -0.05800
C386        C  0.45274676  0.80733010  0.22958413    -0.05700
C387        C  0.46352583  0.80432928  0.26055420    -0.23900
C388        C  0.49376648  0.79518910  0.26556298     0.18300
C389        C  0.01154843  0.77785936  0.23362478     0.15600
C390        C  0.99991264  0.78208833  0.20302874    -0.18900
C391        C  0.04241362  0.77623841  0.23785274    -0.20700
C392        C  0.05405497  0.77710245  0.26849372    -0.13300
C393        C  0.03501921  0.77931631  0.29543108     0.03400
C394        C  0.50516309  0.79589309  0.29644410    -0.25400
H395        H  0.42954303  0.81608322  0.22636545     0.08500
H396        H  0.44834194  0.81052333  0.28059113     0.12100
H397        H  0.01513807  0.78357799  0.18260033     0.12000
H398        H  0.05762279  0.77615670  0.21742197     0.11800
H399        H  0.07796863  0.77805979  0.27105877     0.12300
H400        H  0.49024889  0.80343171  0.31654327     0.14200
C401        C  0.10902214  0.73915235  0.96510879    -0.05800
C402        C  0.08108093  0.73047227  0.95160022    -0.05700
C403        C  0.05520840  0.73148180  0.97074843    -0.23900
C404        C  0.05692039  0.74249020  0.00350773     0.18300
C405        C  0.08491953  0.75249280  0.01716456     0.15600
C406        C  0.11075330  0.74989580  0.99799614    -0.18900
C407        C  0.08653955  0.76636280  0.04955408    -0.20700
C408        C  0.06050848  0.77168302  0.06807926    -0.13300
C409        C  0.03268072  0.76097819  0.05478578     0.03400
C410        C  0.03105343  0.74553051  0.02262383    -0.25400
H411        H  0.07930161  0.72227612  0.92635643     0.08500
H412        H  0.03384505  0.72434921  0.95988071     0.12100
H413        H  0.13222705  0.75764560  0.00856273     0.12000
H414        H  0.10786339  0.77472079  0.06026689     0.11800
H415        H  0.06202383  0.78478912  0.09261279     0.12300
H416        H  0.00948801  0.73908255  0.01200425     0.14200
C417        C  0.36161653  0.79601337  0.03761493    -0.05800
C418        C  0.33433863  0.81406072  0.04975434    -0.05700
C419        C  0.30965416  0.81570628  0.03016195    -0.23900
C420        C  0.31178867  0.79780484  0.99848758     0.18300
C421        C  0.33919750  0.77926437  0.98621268     0.15600
C422        C  0.36405316  0.77955833  0.00566550    -0.18900
C423        C  0.34098651  0.75863663  0.95514086    -0.20700
C424        C  0.31544563  0.75392654  0.93692803    -0.13300
C425        C  0.28813904  0.77187253  0.94904537     0.03400
C426        C  0.28662440  0.79540944  0.97943392    -0.25400
H427        H  0.33223060  0.82730165  0.07427583     0.08500
H428        H  0.28875110  0.82972004  0.03997321     0.12100
H429        H  0.38505231  0.76506903  0.99631344     0.12000
H430        H  0.36180218  0.74392288  0.94550960     0.11800
H431        H  0.31677995  0.73485202  0.91376359     0.12300
H432        H  0.26534642  0.80779497  0.98922443     0.14200
C433        C  0.40454452  0.96790417  0.12264844    -0.05800
C434        C  0.41432776  0.00933408  0.14270572    -0.05700
C435        C  0.40195343  0.06018503  0.14096447    -0.23900
C436        C  0.38015039  0.07097424  0.11850033     0.18300
C437        C  0.37065495  0.03010501  0.09757603     0.15600
C438        C  0.38252708  0.97865891  0.10014666    -0.18900
C439        C  0.34981860  0.04171973  0.07416536    -0.20700
C440        C  0.33866741  0.09348308  0.07139867    -0.13300
C441        C  0.34744153  0.13405093  0.09260421     0.03400
C442        C  0.36808941  0.12221773  0.11626590    -0.25400
H443        H  0.43125997  0.00216692  0.16004075     0.08500
H444        H  0.40966594  0.09127387  0.15699254     0.12100
H445        H  0.37514571  0.94726292  0.08410161     0.12000
H446        H  0.34245715  0.01095587  0.05772998     0.11800
H447        H  0.32298210  0.10170832  0.05290834     0.12300
H448        H  0.37550162  0.15348543  0.13236865     0.14200
C449        C  0.41429178  0.63358101  0.11265737    -0.05800
C450        C  0.43021204  0.59324829  0.09711421    -0.05700
C451        C  0.42070082  0.53969408  0.09969989    -0.23900
C452        C  0.39445100  0.52595380  0.11688478     0.18300
C453        C  0.37854729  0.56616410  0.13309003     0.15600
C454        C  0.38902216  0.61961219  0.13154398    -0.18900
C455        C  0.35161944  0.55262782  0.14909151    -0.20700
C456        C  0.33980420  0.50028013  0.14770673    -0.13300
C457        C  0.35513050  0.46026532  0.13108048     0.00200
C458        C  0.38300116  0.47320088  0.11661562    -0.25400
H459        H  0.44978481  0.60334582  0.08258560     0.08500
H460        H  0.43315988  0.50933419  0.08714809     0.12100
H461        H  0.37647149  0.65075092  0.14328862     0.12000
H462        H  0.33911521  0.58296255  0.16159720     0.11800
H463        H  0.31838919  0.49135267  0.15907916     0.12300
H464        H  0.39500244  0.44290540  0.10345322     0.14200
C465        C  0.46718546  0.21591885  0.69353525    -0.05800
C466        C  0.95312907  0.22401951  0.71850055    -0.05700
C467        C  0.96311725  0.22502309  0.74999653    -0.23900
C468        C  0.99369624  0.22957822  0.75627800     0.18300
C469        C  0.50916558  0.22509424  0.72991424     0.15600
C470        C  0.49775127  0.22612817  0.69894064    -0.18900
C471        C  0.53975096  0.23338536  0.73495330    -0.20700
C472        C  0.55123294  0.23009389  0.76567669    -0.13300
C473        C  0.03501964  0.22924370  0.79377524     0.03400
C474        C  0.00415147  0.22697415  0.78770309    -0.25400
H475        H  0.92954092  0.21873733  0.71441818     0.08500
H476        H  0.94694954  0.22086729  0.76944123     0.12100
H477        H  0.51293143  0.23360177  0.67891688     0.12000
H478        H  0.55490165  0.24167381  0.71502683     0.11800
H479        H  0.57495057  0.23590867  0.76870453     0.12300
H480        H  0.98824440  0.22158933  0.80731373     0.14200
C481        C  0.02861225  0.09439421  0.97286930    -0.05800
C482        C  0.02502765  0.10537082  0.00551042    -0.05700
C483        C  0.01203158  0.06692945  0.02598982    -0.23900
C484        C  0.00211302  0.01733283  0.01397925     0.18300
C485        C  0.00589389  0.00579205  0.98124266     0.15600
C486        C  0.01932217  0.04413785  0.96100934    -0.18900
C487        C  0.50850062  0.94726181  0.97135680    -0.20700
C488        C  0.49449766  0.90927828  0.99143604    -0.13300
C489        C  0.48553214  0.92354424  0.02246430     0.03400
C490        C  0.49093213  0.97625738  0.03321004    -0.25400
H491        H  0.03194578  0.14383770  0.01510630     0.08500
H492        H  0.00937010  0.07622845  0.05110035     0.12100
H493        H  0.02169801  0.03530132  0.93579653     0.12000
H494        H  0.51515905  0.93563381  0.94740322     0.11800
H495        H  0.49091999  0.86881117  0.98283381     0.12300
H496        H  0.48447084  0.98783277  0.05724417     0.14200
C497        C  0.09541724  0.39509014  0.89168347    -0.05800
C498        C  0.08345057  0.43352633  0.91243130    -0.05700
C499        C  0.09425824  0.48655501  0.91169709    -0.23900
C500        C  0.11791181  0.50167933  0.89090919     0.18300
C501        C  0.13015299  0.46333325  0.86995925     0.15600
C502        C  0.11836841  0.41064174  0.86997140    -0.18900
C503        C  0.15472346  0.47783080  0.85025621    -0.20700
C504        C  0.16748940  0.52945921  0.85179698    -0.13300
C505        C  0.15535805  0.56798890  0.87233387     0.03400
C506        C  0.13020798  0.55395065  0.89149233    -0.25400
H507        H  0.06589708  0.42235227  0.92944021     0.08500
H508        H  0.08470982  0.51536276  0.92805700     0.12100
H509        H  0.12814618  0.38101909  0.85430254     0.12000
H510        H  0.16452468  0.44884194  0.83420602     0.11800
H511        H  0.18685323  0.53931921  0.83692375     0.12300
H512        H  0.12096197  0.58311902  0.90785234     0.14200
C513        C  0.16617121  0.89875171  0.89750929    -0.05800
C514        C  0.17539956  0.94016161  0.91791218    -0.05700
C515        C  0.16397326  0.99155963  0.91501805    -0.23900
C516        C  0.14239146  0.00212700  0.89229660     0.18300
C517        C  0.13253115  0.96067396  0.87193978     0.15600
C518        C  0.14492339  0.90958128  0.87424031    -0.18900
C519        C  0.10990944  0.97076760  0.85025806    -0.20700
C520        C  0.09703874  0.02133372  0.84892067    -0.13300
C521        C  0.10714889  0.06313761  0.86857786     0.03400
C522        C  0.13003471  0.05312455  0.89009903    -0.25400
H523        H  0.19147338  0.93270916  0.93612097     0.08500
H524        H  0.17159559  0.02283143  0.93100536     0.12100
H525        H  0.13712093  0.87762526  0.85881199     0.12000
H526        H  0.10185181  0.93929697  0.83466074     0.11800
H527        H  0.07936017  0.02790227  0.83237054     0.12300
H528        H  0.13763509  0.08472122  0.90591008     0.14200
C529        C  0.14930482  0.23102232  0.95870152    -0.05800
C530        C  0.17675264  0.21418870  0.94629804    -0.05700
C531        C  0.20178707  0.21409496  0.96554633    -0.23900
C532        C  0.19989639  0.23243376  0.99717942     0.18300
C533        C  0.17233902  0.24966455  0.00977409     0.15600
C534        C  0.14713045  0.24773878  0.99068056    -0.18900
C535        C  0.17069982  0.27053919  0.04081788    -0.20700
C536        C  0.19641905  0.27655495  0.05872520    -0.13300
C537        C  0.22392421  0.25985710  0.04638071     0.03400
C538        C  0.22535644  0.23633286  0.01590204    -0.25400
H539        H  0.17874508  0.20072709  0.92181115     0.08500
H540        H  0.22276644  0.20095492  0.95547360     0.12100
H541        H  0.12602711  0.26124091  0.00031168     0.12000
H542        H  0.14977227  0.28422971  0.05073219     0.11800
H543        H  0.19498190  0.29540607  0.08194970     0.12300
H544        H  0.24666902  0.22467802  0.00587021     0.14200
C545        C  0.47499584  0.26369377  0.93889420    -0.05800
C546        C  0.44701137  0.24547888  0.92886434    -0.05700
C547        C  0.42174086  0.25255502  0.94823540    -0.23900
C548        C  0.42429511  0.27614348  0.97844126     0.18300
C549        C  0.45233705  0.29485937  0.98881004     0.15600
C550        C  0.47740741  0.28979780  0.96856235    -0.18900
C551        C  0.45495689  0.31592005  0.01976856    -0.20700
C552        C  0.43003283  0.31749411  0.04043706    -0.13300
C553        C  0.40211601  0.29961378  0.02998025     0.03400
C554        C  0.39938604  0.27959679  0.99884807    -0.25400
H555        H  0.44484254  0.22462459  0.90636842     0.08500
H556        H  0.40037239  0.23769528  0.94012118     0.12100
H557        H  0.49911302  0.30264607  0.97685600     0.12000
H558        H  0.47635266  0.33011857  0.02817996     0.11800
H559        H  0.43243126  0.33323706  0.06432482     0.12300
H560        H  0.37788454  0.26503237  0.99085016     0.14200
O561        O  0.56362655  0.11612614  0.85950704    -0.85900
O562        O  0.54538353  0.11866916  0.92096821    -0.82900
C563        C  0.54061125  0.13299894  0.94920523     0.97600
O564        O  0.54169997  0.18225841  0.95659046    -0.83000
O565        O  0.59964017  0.21245901  0.94739279    -0.85600
C566        C  0.62440254  0.22346215  0.93437435     1.02100
O567        O  0.62603248  0.23598949  0.90501811    -0.78400
O568        O  0.60699310  0.14608875  0.87445026    -0.78600
C569        C  0.59024646  0.10744811  0.86693621     1.02000
O570        O  0.52647847  0.20728153  0.84790322    -0.85900
O571        O  0.50375921  0.20110373  0.90972962    -0.83000
C572        C  0.50228173  0.24766286  0.92168030     0.97600
O573        O  0.52523403  0.27714095  0.92308610    -0.83000
O574        O  0.58356244  0.31115579  0.91742937    -0.85600
C575        C  0.58919551  0.32867761  0.88946415     1.02100
O576        O  0.58876181  0.29803567  0.86560830    -0.78400
O577        O  0.57251174  0.20963019  0.82931468    -0.78600
C578        C  0.54456027  0.21264841  0.82473554     1.02000
Cr579      Cr  0.53672487  0.16459495  0.88508023     1.93700
Cr580      Cr  0.56278169  0.24359399  0.93323241     1.93200
Cr581      Cr  0.59624973  0.22141710  0.87008965     1.39100
O582        O  0.56500733  0.21096090  0.89593299    -1.23600
O583        O  0.89730929  0.86937114  0.11609774    -0.85900
O584        O  0.88017369  0.78107667  0.08339543    -0.82900
C585        C  0.88273632  0.79447127  0.05428971     0.97600
O586        O  0.90790244  0.80445702  0.04182777    -0.83000
O587        O  0.96583157  0.83867620  0.03625672    -0.85600
C588        C  0.96729095  0.88763321  0.04447014     1.02100
O589        O  0.96108729  0.90125158  0.07262567    -0.78400
O590        O  0.93974571  0.89932996  0.13370541    -0.78600
C591        C  0.91332463  0.90773641  0.12549880     1.02000
O592        O  0.93025879  0.80398496  0.16133045    -0.85900
O593        O  0.91636520  0.71762617  0.12321062    -0.83000
C594        C  0.91729358  0.68749331  0.09915542     0.97600
O595        O  0.92435290  0.70594228  0.07169453    -0.83000
O596        O  0.98252013  0.74350142  0.06930229    -0.85600
C597        C  0.50911636  0.77201636  0.07706882     1.02100
O598        O  0.50714991  0.81941157  0.08771473    -0.78400
O599        O  0.97672649  0.80739064  0.14435172    -0.78600
C600        C  0.95789859  0.79903379  0.16649946     1.02000
Cr601      Cr  0.90844225  0.79419610  0.11950800     1.93700
Cr602      Cr  0.94476377  0.77524927  0.05765601     1.93200
Cr603      Cr  0.96799483  0.85317380  0.10818189     1.39100
O604        O  0.94049421  0.80683300  0.09509242    -1.23600
O605        O  0.65288973  0.64780163  0.88227400    -0.85900
O606        O  0.63316512  0.73172697  0.91779328    -0.82900
C607        C  0.63492499  0.71711759  0.94662667     0.97600
O608        O  0.65979754  0.70732740  0.95803657    -0.83000
O609        O  0.71905845  0.68332925  0.96193620    -0.85600
C610        C  0.72263046  0.63556462  0.95226074     1.02100
O611        O  0.71703429  0.62307305  0.92398967    -0.78400
O612        O  0.69659155  0.62535155  0.86372691    -0.78600
C613        C  0.66974965  0.61294337  0.87089019     1.02000
O614        O  0.68497076  0.71947433  0.83849326    -0.85900
O615        O  0.66922542  0.80206027  0.87868591    -0.83000
C616        C  0.66781356  0.83053482  0.90342125     0.97600
O617        O  0.67425042  0.81133916  0.93048945    -0.83000
O618        O  0.73354764  0.78390325  0.93142914    -0.85600
C619        C  0.75686226  0.75783899  0.92706059     1.02100
O620        O  0.75580433  0.71303073  0.91297224    -0.78400
O621        O  0.73116096  0.72410245  0.85382830    -0.78600
C622        C  0.71250756  0.72778131  0.83214718     1.02000
Cr623      Cr  0.66244870  0.72443436  0.88084633     1.93700
Cr624      Cr  0.69639238  0.74442963  0.94257151     1.93200
Cr625      Cr  0.72303819  0.67485314  0.88945422     1.39100
O626        O  0.69407001  0.71513754  0.90433941    -1.23600
O627        O  0.80934986  0.39290608  0.13005841    -0.85900
O628        O  0.79344018  0.39638112  0.06811630    -0.82900
C629        C  0.78945354  0.38396593  0.03948070     0.97600
O630        O  0.79040701  0.33522013  0.03078065    -0.83000
O631        O  0.84758917  0.30476642  0.03842953    -0.85600
C632        C  0.87156075  0.29347380  0.05125328     1.02100
O633        O  0.87196527  0.28014157  0.08042835    -0.78400
O634        O  0.85304620  0.36628692  0.11425098    -0.78600
C635        C  0.83661636  0.40314423  0.12381260     1.02000
O636        O  0.77086014  0.29818082  0.13757761    -0.85900
O637        O  0.75029027  0.31150072  0.07685258    -0.83000
C638        C  0.74844300  0.26565446  0.06405746     0.97600
O639        O  0.77093571  0.23692713  0.06197448    -0.83000
O640        O  0.82901180  0.20376783  0.06580970    -0.85600
C641        C  0.83420826  0.18433982  0.09310620     1.02100
O642        O  0.83224688  0.21296653  0.11777750    -0.78400
O643        O  0.81591622  0.29759939  0.15657196    -0.78600
C644        C  0.78784107  0.29111162  0.16049091     1.02000
Cr645      Cr  0.78295278  0.34619760  0.10253911     1.93700
Cr646      Cr  0.80956731  0.27211928  0.05215295     1.93200
Cr647      Cr  0.84104134  0.29035290  0.11568929     1.39100
O648        O  0.81112216  0.30222031  0.09012640    -1.23600
O649        O  0.94975036  0.11952179  0.62362997    -0.85900
O650        O  0.97327374  0.12338999  0.56417453    -0.82900
C651        C  0.98051036  0.13706871  0.53628569     0.97600
O652        O  0.97823042  0.18568891  0.52769632    -0.83000
O653        O  0.91821439  0.20732010  0.53070106    -0.85600
C654        C  0.89259943  0.21430534  0.54233361     1.02100
O655        O  0.88915534  0.22811426  0.57135083    -0.78400
O656        O  0.90687960  0.14326121  0.60561519    -0.78600
C657        C  0.92338973  0.10734534  0.61548256     1.02000
O658        O  0.98341791  0.21819535  0.63730928    -0.85900
O659        O  0.50174516  0.20821449  0.57746731    -0.83000
C660        C  0.50287364  0.25447090  0.56479204     0.97600
O661        O  0.98825962  0.28532344  0.56210502    -0.83000
O662        O  0.92931496  0.30929229  0.56102577    -0.85600
C663        C  0.92184692  0.32748301  0.58834737     1.02100
O664        O  0.92231287  0.29794899  0.61268472    -0.78400
O665        O  0.93644492  0.21295701  0.65205996    -0.78600
C666        C  0.96372890  0.22053044  0.65899012     1.02000
Cr667      Cr  0.97740223  0.17222857  0.59996890     1.93700
Cr668      Cr  0.95320711  0.24456190  0.54819244     1.93200
Cr669      Cr  0.91612097  0.22001889  0.60902251     1.39100
O670        O  0.94894352  0.21272284  0.58574055    -1.23600
O671        O  0.61396246  0.85926314  0.38010158    -0.85900
O672        O  0.62775573  0.77107443  0.41406683    -0.82900
C673        C  0.62732103  0.78657648  0.44298177     0.97600
O674        O  0.60342616  0.80149369  0.45587720    -0.83000
O675        O  0.54541700  0.83227640  0.46511671    -0.85600
C676        C  0.54559668  0.88126260  0.45703369     1.02100
O677        O  0.55246749  0.89439763  0.42902171    -0.78400
O678        O  0.57151480  0.89468220  0.36824546    -0.78600
C679        C  0.59938198  0.89932672  0.37248533     1.02000
O680        O  0.57588862  0.79758119  0.33823569    -0.85900
O681        O  0.58515539  0.71026104  0.37656230    -0.83000
C682        C  0.58807361  0.68146750  0.40078777     0.97600
O683        O  0.58474356  0.70123925  0.42854056    -0.83000
O684        O  0.52672596  0.73616159  0.43323258    -0.85600
C685        C  0.50446716  0.76513938  0.43025341     1.02100
O686        O  0.50749861  0.81165614  0.41803624    -0.78400
O687        O  0.53024480  0.80464829  0.35673272    -0.78600
C688        C  0.54799292  0.79652160  0.33376962     1.02000
Cr689      Cr  0.59847435  0.78556434  0.37889968     1.93700
Cr690      Cr  0.56532943  0.76990515  0.44287834     1.93200
Cr691      Cr  0.54218159  0.84765860  0.39360847     1.39100
O692        O  0.56850279  0.80075069  0.40501381    -1.23600
O693        O  0.85709062  0.64143808  0.61220951    -0.85900
O694        O  0.87499471  0.72775589  0.57771488    -0.82900
C695        C  0.87229522  0.71292128  0.54903130     0.97600
O696        O  0.84713602  0.70237535  0.53797455    -0.83000
O697        O  0.78816762  0.67339609  0.53536031    -0.85600
C698        C  0.78502294  0.62515978  0.54463727     1.02100
O699        O  0.79187685  0.61190103  0.57226497    -0.78400
O700        O  0.81414368  0.61282261  0.63145150    -0.78600
C701        C  0.84064723  0.60357281  0.62227027     1.02000
O702        O  0.82548755  0.70914288  0.65834213    -0.85900
O703        O  0.84036273  0.79437074  0.61849994    -0.83000
C704        C  0.84076824  0.82325440  0.59385482     0.97600
O705        O  0.83355025  0.80377174  0.56700307    -0.83000
O706        O  0.77455965  0.77095570  0.56832438    -0.85600
C707        C  0.75141412  0.74219076  0.57179044     1.02100
O708        O  0.75260689  0.69695744  0.58536756    -0.78400
O709        O  0.77896584  0.70787804  0.64392686    -0.78600
C710        C  0.79801731  0.71531005  0.66499881     1.02000
Cr711      Cr  0.84700682  0.71706315  0.61535752     1.93700
Cr712      Cr  0.81120498  0.73558058  0.55499665     1.93200
Cr713      Cr  0.78642604  0.66106074  0.60759711     1.39100
O714        O  0.81476859  0.70518537  0.59266068    -1.23600
O715        O  0.70844896  0.41044943  0.40744476    -0.85900
O716        O  0.74109531  0.35066817  0.44786634    -0.82900
C717        C  0.72146647  0.35987176  0.46853501     0.97600
O718        O  0.69884836  0.32896184  0.47058728    -0.83000
O719        O  0.65196620  0.26907779  0.44772533    -0.85600
C720        C  0.63481982  0.30562547  0.44000903     1.02100
O721        O  0.64032145  0.33284404  0.41494634    -0.78400
O722        O  0.67668526  0.38758639  0.37098726    -0.78600
C723        C  0.68652816  0.42158500  0.39067320     1.02000
O724        O  0.73046257  0.34800152  0.35558533    -0.85900
O725        O  0.75871807  0.28186487  0.39971154    -0.83000
C726        C  0.76069083  0.25388678  0.42483333     0.97600
O727        O  0.73851408  0.24875669  0.44387703    -0.83000
O728        O  0.68979057  0.19753872  0.41609780    -0.85600
C729        C  0.66753952  0.19299586  0.39815282     1.02100
O730        O  0.65621453  0.23371002  0.38580207    -0.78400
O731        O  0.69670876  0.28685825  0.34429204    -0.78600
C732        C  0.72047828  0.31284259  0.33689392     1.02000
Cr733      Cr  0.73216788  0.34498861  0.40250389     1.93700
Cr734      Cr  0.69540694  0.26392621  0.44210550     1.93200
Cr735      Cr  0.66976308  0.30972767  0.38070710     1.39100
O736        O  0.69927183  0.30484694  0.40787816    -1.23600
C737        C  0.77100454  0.58404123  0.52470855    -0.05800
C738        C  0.77574724  0.58331334  0.49165116    -0.05700
C739        C  0.76482826  0.54023800  0.47386013    -0.23900
C740        C  0.74883648  0.49807142  0.48903786     0.18300
C741        C  0.74209175  0.50046242  0.52194622     0.15600
C742        C  0.75330190  0.54352900  0.53959052    -0.18900
C743        C  0.72538603  0.45862932  0.53677074    -0.20700
C744        C  0.71688706  0.41311770  0.51933580    -0.13300
C745        C  0.72544537  0.40914393  0.48717805     0.03400
C746        C  0.74067751  0.45242958  0.47208047    -0.25400
H747        H  0.78895030  0.61466875  0.47989581     0.08500
H748        H  0.76968316  0.53902153  0.44844778     0.12100
H749        H  0.74892178  0.54485608  0.56510554     0.12000
H750        H  0.71976747  0.46037618  0.56199330     0.11800
H751        H  0.70506486  0.38024531  0.53121203     0.12300
H752        H  0.74709118  0.44998379  0.44705961     0.14200
C753        C  0.97261016  0.75072631  0.43785191    -0.05800
C754        C  0.94490047  0.76481219  0.42626460    -0.05700
C755        C  0.91905622  0.75522188  0.44486111    -0.23900
C756        C  0.92097074  0.73377245  0.47570949     0.18300
C757        C  0.94895145  0.71996397  0.48743854     0.15600
C758        C  0.97436178  0.72721789  0.46812532    -0.18900
C759        C  0.95133100  0.70154096  0.51883037    -0.20700
C760        C  0.92622657  0.69844866  0.53891882    -0.13300
C761        C  0.89837062  0.71197883  0.52749010     0.03400
C762        C  0.89568750  0.72830489  0.49562975    -0.25400
H763        H  0.94333954  0.78350234  0.40310043     0.08500
H764        H  0.89776268  0.76640432  0.43564703     0.12100
H765        H  0.99588885  0.71764080  0.47750085     0.12000
H766        H  0.97273775  0.69121431  0.52813135     0.11800
H767        H  0.92854344  0.68578880  0.56341197     0.12300
H768        H  0.87419509  0.73959873  0.48692522     0.14200
C769        C  0.72490259  0.75600118  0.55381858    -0.05800
C770        C  0.69613724  0.75096169  0.56718381    -0.05700
C771        C  0.67132400  0.75901767  0.54830406    -0.23900
C772        C  0.67499958  0.76995788  0.51553766     0.18300
C773        C  0.70390448  0.77377937  0.50178351     0.15600
C774        C  0.72863165  0.76799006  0.52115576    -0.18900
C775        C  0.70757338  0.78173778  0.46874838    -0.20700
C776        C  0.68274126  0.78575166  0.44942625    -0.13300
C777        C  0.65392357  0.78329996  0.46295369     0.03400
C778        C  0.65026202  0.77571857  0.49614156    -0.25400
H779        H  0.69291009  0.74063576  0.59211791     0.08500
H780        H  0.64927046  0.75532567  0.55911634     0.12100
H781        H  0.75083128  0.77011253  0.51050959     0.12000
H782        H  0.72961908  0.78409061  0.45781692     0.11800
H783        H  0.68605050  0.79123859  0.42396629     0.12300
H784        H  0.62808958  0.77265388  0.50676855     0.14200
C785        C  0.61538582  0.95170969  0.37029374    -0.05800
C786        C  0.64633843  0.95344265  0.36431770    -0.05700
C787        C  0.66299313  0.00087485  0.36822073    -0.23900
C788        C  0.64908231  0.04751519  0.37855164     0.18300
C789        C  0.61779176  0.04659795  0.38368581     0.15600
C790        C  0.60112108  0.99890141  0.37926209    -0.18900
C791        C  0.60376409  0.09309860  0.39395650    -0.20700
C792        C  0.62044924  0.14004776  0.39880099    -0.13300
C793        C  0.65151987  0.14138814  0.39401929     0.03400
C794        C  0.66588106  0.09486842  0.38410179    -0.25400
H795        H  0.65786512  0.91746142  0.35754864     0.08500
H796        H  0.68684255  0.00069010  0.36395306     0.12100
H797        H  0.57738469  0.99782745  0.38450847     0.12000
H798        H  0.57990230  0.09321488  0.39819834     0.11800
H799        H  0.60902528  0.17565679  0.40653734     0.12300
H800        H  0.68979442  0.09587773  0.38011792     0.14200
C801        C  0.60000444  0.62750204  0.39642663    -0.05800
C802        C  0.59435284  0.59808539  0.36856321    -0.05700
C803        C  0.60988952  0.55141929  0.36180247    -0.23900
C804        C  0.63198953  0.53442012  0.38233279     0.18300
C805        C  0.63773656  0.56393014  0.41038484     0.15600
C806        C  0.62129452  0.60948244  0.41758469    -0.18900
C807        C  0.66042877  0.54833786  0.43040536    -0.20700
C808        C  0.67708416  0.50351233  0.42298440    -0.13300
C809        C  0.67124404  0.47289049  0.39561215     0.03400
C810        C  0.64861330  0.48878265  0.37523620    -0.25400
H811        H  0.57836658  0.61192359  0.35166908     0.08500
H812        H  0.60523497  0.52954752  0.34011748     0.12100
H813        H  0.62639739  0.63280912  0.43864813     0.12000
H814        H  0.66525476  0.57070505  0.45187248     0.11800
H815        H  0.69398168  0.49190837  0.43934464     0.12300
H816        H  0.64376893  0.46549007  0.35410712     0.14200
C817        C  0.91142529  0.05142627  0.61638161    -0.05800
C818        C  0.92456956  0.01138814  0.63438251    -0.05700
C819        C  0.91268423  0.95889421  0.63448441    -0.23900
C820        C  0.88783064  0.94541711  0.61605925     0.18300
C821        C  0.87500873  0.98514090  0.59723453     0.15600
C822        C  0.88662127  0.03771554  0.59780364    -0.18900
C823        C  0.85096267  0.97160641  0.57777910    -0.20700
C824        C  0.83974918  0.91897419  0.57682284    -0.13300
C825        C  0.85182351  0.87932834  0.59591544     0.03400
C826        C  0.87581453  0.89285612  0.61570276    -0.25400
H827        H  0.94382300  0.02077244  0.64860090     0.08500
H828        H  0.92301841  0.92881400  0.64878413     0.12100
H829        H  0.87659526  0.06784823  0.58322328     0.12000
H830        H  0.84106455  0.00158347  0.56302663     0.11800
H831        H  0.82146054  0.90925400  0.56128825     0.12300
H832        H  0.88566732  0.86216812  0.63000230     0.14200
C833        C  0.91048389  0.38248904  0.59153198    -0.05800
C834        C  0.91834052  0.42180733  0.56877129    -0.05700
C835        C  0.90659473  0.47300852  0.57096723    -0.23900
C836        C  0.88624067  0.48547940  0.59558096     0.18300
C837        C  0.87772271  0.44616018  0.61836759     0.15600
C838        C  0.89027470  0.39515468  0.61649925    -0.18900
C839        C  0.85644925  0.45840105  0.64224709    -0.20700
C840        C  0.84379699  0.50922518  0.64354986    -0.13300
C841        C  0.85280304  0.54892295  0.62149090     0.03400
C842        C  0.87405247  0.53653243  0.59754716    -0.25400
H843        H  0.93367716  0.41296222  0.54929255     0.08500
H844        H  0.91317115  0.50270305  0.55318361     0.12100
H845        H  0.88362341  0.36484780  0.63389684     0.12000
H846        H  0.84946611  0.42856770  0.65977847     0.11800
H847        H  0.82742360  0.51780044  0.66206117     0.12300
H848        H  0.88077406  0.56656698  0.57998385     0.14200
C849        C  0.53422349  0.92326095  0.47842121    -0.05800
C850        C  0.51747509  0.90948068  0.50592747    -0.05700
C851        C  0.00701222  0.94893079  0.51952516    -0.23900
C852        C  0.00750390  0.00202308  0.50853053     0.18300
C853        C  0.51935646  0.01617606  0.48428873     0.15600
C854        C  0.53590191  0.97720852  0.46839108    -0.18900
C855        C  0.51964325  0.06945105  0.47343107    -0.20700
C856        C  0.00838864  0.10841464  0.48643982    -0.13300
C857        C  0.99356262  0.09549990  0.51533097     0.03400
C858        C  0.99326572  0.04195608  0.52608552    -0.25400
H859        H  0.51567407  0.86830178  0.51393224     0.08500
H860        H  0.99592134  0.93834116  0.54191745     0.12100
H861        H  0.54889469  0.98845998  0.44724148     0.12000
H862        H  0.53333331  0.08153352  0.45296094     0.11800
H863        H  0.00938511  0.14933839  0.47789873     0.12300
H864        H  0.98206541  0.03114179  0.54839920     0.14200
C865        C  0.86655499  0.20892224  0.52156753    -0.05800
C866        C  0.83903371  0.19173445  0.53470153    -0.05700
C867        C  0.81379621  0.18952927  0.51602971    -0.23900
C868        C  0.81539392  0.20635562  0.48414146     0.18300
C869        C  0.84287635  0.22362601  0.47035604     0.15600
C870        C  0.86858802  0.22347372  0.48900829    -0.18900
C871        C  0.84363803  0.24330117  0.43885041    -0.20700
C872        C  0.81707636  0.24964953  0.42225001    -0.13300
C873        C  0.78954291  0.23439568  0.43649207     0.03400
C874        C  0.78940531  0.20959558  0.46669899    -0.25400
H875        H  0.83703137  0.18020746  0.55955625     0.08500
H876        H  0.79273536  0.17663535  0.52692784     0.12100
H877        H  0.88974414  0.23742905  0.47877546     0.12000
H878        H  0.86452440  0.25676613  0.42780306     0.11800
H879        H  0.81793950  0.26907016  0.39916711     0.12300
H880        H  0.76851703  0.19711313  0.47816576     0.14200
C881        C  0.53098332  0.27447485  0.54931902    -0.05800
C882        C  0.55842655  0.25839231  0.56076114    -0.05700
C883        C  0.58459207  0.26735064  0.54274381    -0.23900
C884        C  0.58367614  0.29109242  0.51247333     0.18300
C885        C  0.55647081  0.30923640  0.50097769     0.15600
C886        C  0.53030377  0.30175836  0.51981665    -0.18900
C887        C  0.55579421  0.33168360  0.47017412    -0.20700
C888        C  0.58152637  0.33351185  0.45039695    -0.13300
C889        C  0.60831270  0.31324444  0.46126857     0.03400
C890        C  0.60929038  0.29406349  0.49285957    -0.25400
H891        H  0.55946491  0.23709155  0.58316890     0.08500
H892        H  0.60538101  0.25327635  0.55183230     0.12100
H893        H  0.50914627  0.31342399  0.51042406     0.12000
H894        H  0.53510824  0.34588771  0.46092606     0.11800
H895        H  0.58016170  0.34846624  0.42627213     0.12300
H896        H  0.62990037  0.27889186  0.50182770     0.14200
C897        C  0.77397229  0.28008904  0.19222504    -0.05800
C898        C  0.74525651  0.25637095  0.19450968    -0.05700
C899        C  0.72957022  0.25404632  0.22368844    -0.23900
C900        C  0.74205881  0.27641273  0.25108750     0.18300
C901        C  0.77134892  0.29865979  0.24915326     0.15600
C902        C  0.78729080  0.29953561  0.21993483    -0.18900
C903        C  0.78380092  0.32194008  0.27615879    -0.20700
C904        C  0.76714660  0.32499353  0.30445107    -0.13300
C905        C  0.73763517  0.30453109  0.30667332     0.03400
C906        C  0.72542538  0.27887007  0.27999872    -0.25400
H907        H  0.73453009  0.24096992  0.17341672     0.08500
H908        H  0.70727964  0.23660314  0.22454599     0.12100
H909        H  0.80922849  0.31847572  0.21838347     0.12000
H910        H  0.80618571  0.33902816  0.27522032     0.11800
H911        H  0.77746410  0.34421258  0.32469502     0.12300
H912        H  0.70282162  0.26285647  0.28134653     0.14200
C913        C  0.78728328  0.72779714  0.69775115    -0.05800
C914        C  0.80706027  0.73569161  0.72283993    -0.05700
C915        C  0.79618838  0.74238882  0.75410685    -0.23900
C916        C  0.76539677  0.74058917  0.76076450     0.18300
C917        C  0.74537851  0.73459948  0.73553669     0.15600
C918        C  0.75640864  0.72891865  0.70429889    -0.18900
C919        C  0.71462972  0.73209308  0.74205060    -0.20700
C920        C  0.70377712  0.73266354  0.77349832    -0.13300
C921        C  0.72347786  0.73627340  0.79893694     0.03400
C922        C  0.75430111  0.74211730  0.79227789    -0.25400
H923        H  0.83088274  0.73545319  0.71841341     0.08500
H924        H  0.81185918  0.74724983  0.77319290     0.12100
H925        H  0.74077435  0.72320773  0.68522723     0.12000
H926        H  0.69900901  0.72768997  0.72287727     0.11800
H927        H  0.68002053  0.72819605  0.77791817     0.12300
H928        H  0.76980963  0.74511908  0.81164116     0.14200
C929        C  0.73582232  0.59470042  0.97281905    -0.05800
C930        C  0.74523491  0.60755943  0.00362335    -0.05700
C931        C  0.75942459  0.56958175  0.02199847    -0.23900
C932        C  0.76438649  0.51810528  0.00987721     0.18300
C933        C  0.75539228  0.50489413  0.97880518     0.15600
C934        C  0.74121833  0.54318175  0.96051753    -0.18900
C935        C  0.76030494  0.45334236  0.96673439    -0.20700
C936        C  0.77273930  0.41434280  0.98589285    -0.13300
C937        C  0.78076113  0.42651688  0.01726520     0.03400
C938        C  0.77735968  0.47914709  0.02869276    -0.25400
H939        H  0.74185853  0.64710826  0.01342220     0.08500
H940        H  0.76633106  0.58035023  0.04577663     0.12100
H941        H  0.73445821  0.53273945  0.93662355     0.12000
H942        H  0.75372154  0.44273475  0.94282138     0.11800
H943        H  0.77514383  0.37424248  0.97652498     0.12300
H944        H  0.78357012  0.48934355  0.05280387     0.14200
C945        C  0.96905701  0.78714143  0.19873465    -0.05800
C946        C  0.94979931  0.78433831  0.22554984    -0.05700
C947        C  0.96122513  0.77934863  0.25617330    -0.23900
C948        C  0.99209858  0.77752382  0.26048854     0.18300
C949        C  0.51312233  0.78696997  0.23915247     0.15600
C950        C  0.50210401  0.78964849  0.20817700    -0.18900
C951        C  0.54337736  0.77803381  0.24414164    -0.20700
C952        C  0.55464998  0.77951768  0.27495874    -0.13300
C953        C  0.53581442  0.78942521  0.30137641     0.03400
C954        C  0.00393521  0.77772944  0.29117197    -0.25400
H955        H  0.92601538  0.78767633  0.22294582     0.08500
H956        H  0.94596281  0.77871387  0.27656494     0.12100
H957        H  0.51723750  0.78428193  0.18797990     0.12000
H958        H  0.55850157  0.77132295  0.22411497     0.11800
H959        H  0.57822376  0.77406148  0.27804453     0.12300
H960        H  0.98888460  0.77887944  0.31172796     0.14200
C961        C  0.60826889  0.71627299  0.96799915    -0.05800
C962        C  0.57961006  0.71183448  0.95553520    -0.05700
C963        C  0.55449317  0.71731020  0.97543226    -0.23900
C964        C  0.55767204  0.72891524  0.00794275     0.18300
C965        C  0.58635667  0.73294224  0.02086359     0.15600
C966        C  0.61143116  0.72522147  0.00095526    -0.18900
C967        C  0.58948031  0.74733498  0.05307373    -0.20700
C968        C  0.56443094  0.75963363  0.07197747    -0.13300
C969        C  0.53593963  0.75534871  0.05925909     0.03400
C970        C  0.53269634  0.73891545  0.02742099    -0.25400
H971        H  0.57665803  0.70499514  0.93029314     0.08500
H972        H  0.53260934  0.71436863  0.96517753     0.12100
H973        H  0.63345970  0.72945406  0.01077256     0.12000
H974        H  0.61134967  0.75091348  0.06329798     0.11800
H975        H  0.56726117  0.77261855  0.09636935     0.12300
H976        H  0.51069800  0.73674095  0.01732455     0.14200
C977        C  0.85652162  0.79612029  0.03384726    -0.05800
C978        C  0.82864787  0.81089828  0.04616055    -0.05700
C979        C  0.80406138  0.81223144  0.02632745    -0.23900
C980        C  0.80687007  0.79732246  0.99412310     0.18300
C981        C  0.83483109  0.78197775  0.98164565     0.15600
C982        C  0.85953375  0.78244362  0.00142055    -0.18900
C983        C  0.83739790  0.76444498  0.94993792    -0.20700
C984        C  0.81217461  0.75968567  0.93118568    -0.13300
C985        C  0.78424374  0.77428349  0.94344623     0.03400
C986        C  0.78191588  0.79478141  0.97464254    -0.25400
H987        H  0.82597577  0.82186726  0.07102538     0.08500
H988        H  0.78273537  0.82375384  0.03632328     0.12100
H989        H  0.88094124  0.77035675  0.99184003     0.12000
H990        H  0.85865228  0.75218103  0.94011309     0.11800
H991        H  0.81427975  0.74290391  0.90745035     0.12300
H992        H  0.76026627  0.80457654  0.98461972     0.14200
C993        C  0.90111487  0.96205742  0.12498738    -0.05800
C994        C  0.90775436  0.00019993  0.14845841    -0.05700
C995        C  0.89494420  0.05080276  0.14762207    -0.23900
C996        C  0.87594885  0.06432615  0.12283091     0.18300
C997        C  0.87006717  0.02666651  0.09854429     0.15600
C998        C  0.88234762  0.97573016  0.10002135    -0.18900
C999        C  0.85214890  0.04062561  0.07304188    -0.20700
C1000       C  0.84008916  0.09157075  0.07154601    -0.13300
C1001       C  0.84518984  0.12910913  0.09584087     0.03400
C1002       C  0.86308706  0.11501864  0.12158678    -0.25400
H1003       H  0.92229154  0.99046014  0.16773763     0.08500
H1004       H  0.89995648  0.07939450  0.16627502     0.12100
H1005       H  0.87762994  0.94677975  0.08142019     0.12000
H1006       H  0.84771404  0.01231233  0.05406688     0.11800
H1007       H  0.82675501  0.10166822  0.05133298     0.12300
H1008       H  0.86779782  0.14406022  0.14010972     0.14200
C1009       C  0.90779865  0.63091313  0.10282698    -0.05800
C1010       C  0.92140408  0.59096552  0.08458097    -0.05700
C1011       C  0.91118131  0.53781237  0.08688170    -0.23900
C1012       C  0.88658289  0.52417350  0.10671562     0.18300
C1013       C  0.87251023  0.56416931  0.12495900     0.15600
C1014       C  0.88361659  0.61715004  0.12339170    -0.18900
C1015       C  0.84707170  0.55070141  0.14364890    -0.20700
C1016       C  0.83537272  0.49818618  0.14378771    -0.13300
C1017       C  0.84941172  0.45813217  0.12592385     0.00200
C1018       C  0.87529259  0.47145357  0.10779102    -0.25400
H1019       H  0.93996582  0.60093246  0.06857199     0.08500
H1020       H  0.92207250  0.50757979  0.07260398     0.12100
H1021       H  0.87268086  0.64808425  0.13710844     0.12000
H1022       H  0.83586990  0.58099786  0.15759049     0.11800
H1023       H  0.81533823  0.48892121  0.15773807     0.12300
H1024       H  0.88604110  0.44114138  0.09340692     0.14200
C1025       C  0.97347379  0.22792178  0.69260203    -0.05800
C1026       C  0.44809182  0.20619865  0.72001297    -0.05700
C1027       C  0.45927844  0.20553253  0.75100820    -0.23900
C1028       C  0.48983372  0.21438051  0.75619090     0.18300
C1029       C  0.01426597  0.23522465  0.73053859     0.15600
C1030       C  0.00406726  0.23476082  0.69905203    -0.18900
C1031       C  0.04482891  0.23956616  0.73664371    -0.20700
C1032       C  0.05507473  0.23647501  0.76786754    -0.13300
C1033       C  0.53237558  0.21894919  0.79211548     0.03400
C1034       C  0.50148605  0.21172153  0.78706982    -0.25400
H1035       H  0.42461384  0.19777619  0.71671514     0.08500
H1036       H  0.44409127  0.19713782  0.77089591     0.12100
H1037       H  0.02019359  0.23798570  0.67950282     0.12000
H1038       H  0.06091891  0.24413630  0.71715669     0.11800
H1039       H  0.07881836  0.23858830  0.77164895     0.12300
H1040       H  0.48650982  0.20282735  0.80707818     0.14200
C1041       C  0.53110495  0.09163328  0.97246903    -0.05800
C1042       C  0.52322511  0.10522019  0.00391717    -0.05700
C1043       C  0.51041241  0.06664487  0.02434556    -0.23900
C1044       C  0.50508854  0.01425268  0.01342635     0.18300
C1045       C  0.51382003  0.99976004  0.98218601     0.15600
C1046       C  0.52709625  0.03834914  0.96206985    -0.18900
C1047       C  0.99594287  0.95627090  0.96919125    -0.20700
C1048       C  0.98267823  0.91801647  0.98956684    -0.13300
C1049       C  0.97893904  0.92900892  0.02217773     0.03400
C1050       C  0.98852495  0.97904221  0.03416449    -0.25400
H1051       H  0.52615243  0.14590832  0.01241386     0.08500
H1052       H  0.50399839  0.07807740  0.04840485     0.12100
H1053       H  0.53321638  0.02718119  0.93786518     0.12000
H1054       H  0.99863564  0.94698845  0.94408436     0.11800
H1055       H  0.97559359  0.87970986  0.97988488     0.12300
H1056       H  0.98605777  0.98786566  0.05937275     0.14200
C1057       C  0.59849743  0.38484545  0.88511010    -0.05800
C1058       C  0.58192487  0.42541992  0.89940958    -0.05700
C1059       C  0.59177645  0.47864093  0.89709578    -0.23900
C1060       C  0.61886845  0.49164961  0.88139741     0.18300
C1061       C  0.63589432  0.45097639  0.86710641     0.15600
C1062       C  0.62523915  0.39773774  0.86850143    -0.18900
C1063       C  0.66362360  0.46419639  0.85266915    -0.20700
C1064       C  0.67465034  0.51714172  0.85306335    -0.13300
C1065       C  0.65779457  0.55767434  0.86731849     0.03400
C1066       C  0.62964786  0.54452595  0.88086612    -0.25400
H1067       H  0.56138725  0.41580962  0.91239933     0.08500
H1068       H  0.57861191  0.50947558  0.90832280     0.12100
H1069       H  0.63831516  0.36607838  0.85797844     0.12000
H1070       H  0.67707765  0.43342100  0.84179794     0.11800
H1071       H  0.69646102  0.52622928  0.84267070     0.12300
H1072       H  0.61648484  0.57518341  0.89230325     0.14200
C1073       C  0.65648079  0.88544681  0.90061315    -0.05800
C1074       C  0.66562293  0.92620076  0.92147236    -0.05700
C1075       C  0.65485710  0.97799893  0.91837035    -0.23900
C1076       C  0.63419434  0.98952281  0.89485399     0.18300
C1077       C  0.62405391  0.94841801  0.87441981     0.15600
C1078       C  0.63559057  0.89689012  0.87712601    -0.18900
C1079       C  0.60240169  0.95953346  0.85183024    -0.20700
C1080       C  0.59105888  0.01109930  0.84934476    -0.13300
C1081       C  0.60177877  0.05259033  0.86881308     0.03400
C1082       C  0.62333271  0.04136277  0.89159523    -0.25400
H1083       H  0.68146576  0.91816654  0.93982541     0.08500
H1084       H  0.66260183  0.00901739  0.93445122     0.12100
H1085       H  0.62788759  0.86537939  0.86132719     0.12000
H1086       H  0.59413461  0.92828155  0.83620950     0.11800
H1087       H  0.57426747  0.01876208  0.83193168     0.12300
H1088       H  0.63122895  0.07287043  0.90730312     0.14200
C1089       C  0.65090762  0.22475646  0.95467028    -0.05800
C1090       C  0.67971847  0.22048776  0.94154110    -0.05700
C1091       C  0.70445803  0.22313908  0.96119899    -0.23900
C1092       C  0.70076420  0.23149872  0.99415916     0.18300
C1093       C  0.67189105  0.23642521  0.00757704     0.15600
C1094       C  0.64719445  0.23200485  0.98786595    -0.18900
C1095       C  0.66826872  0.24762471  0.04026882    -0.20700
C1096       C  0.69316397  0.25570290  0.05928674    -0.13300
C1097       C  0.72185695  0.25031317  0.04614443     0.03400
C1098       C  0.72550401  0.23716187  0.01371903    -0.25400
H1099       H  0.68308513  0.21492310  0.91612407     0.08500
H1100       H  0.72650338  0.21976344  0.95054890     0.12100
H1101       H  0.62507956  0.23615483  0.99826910     0.12000
H1102       H  0.64625434  0.25196714  0.05084332     0.11800
H1103       H  0.69008198  0.26673648  0.08409810     0.12300
H1104       H  0.74772700  0.23460736  0.00331935     0.14200
C1105       C  0.97234794  0.25988166  0.93992636    -0.05800
C1106       C  0.94479099  0.23952221  0.92983146    -0.05700
C1107       C  0.91929782  0.24460714  0.94921924    -0.23900
C1108       C  0.92127433  0.26830898  0.97948155     0.18300
C1109       C  0.94898074  0.28838338  0.99001261     0.15600
C1110       C  0.97416176  0.28524039  0.96983135    -0.18900
C1111       C  0.95122904  0.30943510  0.02097671    -0.20700
C1112       C  0.92618497  0.31040702  0.04140520    -0.13300
C1113       C  0.89849897  0.29180683  0.03075671     0.03400
C1114       C  0.89616123  0.27104868  0.99971422    -0.25400
H1115       H  0.94311806  0.21890921  0.90719967     0.08500
H1116       H  0.89823591  0.22851736  0.94098765     0.12100
H1117       H  0.99556345  0.29946763  0.97824914     0.12000
H1118       H  0.97240269  0.32446164  0.02950475     0.11800
H1119       H  0.92829036  0.32649995  0.06524893     0.12300
H1120       H  0.87484857  0.25576525  0.99161078     0.14200
loop_ 
_geom_bond_atom_site_label_1 
_geom_bond_atom_site_label_2 
_geom_bond_distance 
_geom_bond_site_symmetry_2 
_ccdc_geom_bond_type 
O1          Cr19   2.028       .  S
O1            C9   1.268       .  A
O2          Cr19   1.954       .  S
O2            C3   1.256       .  A
C3            O4   1.269       .  A
C3          C481   1.473       .  S
O4          Cr20   2.024       .  S
O5          Cr20   1.959       .  S
O5            C6   1.255       .  A
C6            O7   1.269       .  A
C6          C529   1.476       .  S
O7          Cr21   2.024       .  S
O8          Cr21   1.969       .  S
O8            C9   1.255       .  A
C9          C521   1.487       .  S
O10         Cr19   1.967       .  S
O10          C18   1.258       .  A
O11         Cr19   2.022       .  S
O11          C12   1.268       .  A
C12          O13   1.257       .  A
C12        C1105   1.473   1_455  S
O13         Cr20   1.961       .  S
O14         Cr20   2.019       .  S
O14          C15   1.271       .  A
C15          O16   1.262       .  A
C15         C497   1.482       .  S
O16         Cr21   1.975       .  S
O17         Cr21   2.046       .  S
O17          C18   1.277       .  A
C18         C473   1.496       .  S
Cr19         O22   1.773       .  S
Cr20         O22   1.770       .  S
Cr21         O22   1.770       .  S
O23         Cr41   1.969       .  S
O23          C31   1.254       .  A
O24         Cr41   2.014       .  S
O24          C25   1.267       .  A
C25          O26   1.255       .  A
C25         C417   1.468       .  S
O26         Cr42   1.955       .  S
O27         Cr42   2.034       .  S
O27          C28   1.271       .  A
C28          O29   1.253       .  A
C28         C489   1.473       .  S
O29         Cr43   1.941       .  S
O30         Cr43   2.035       .  S
O30          C31   1.271       .  A
C31         C433   1.488       .  S
O32         Cr41   2.037       .  S
O32          C40   1.274       .  A
O33         Cr41   1.970       .  S
O33          C34   1.261       .  A
C34          O35   1.272       .  A
C34         C449   1.475       .  S
O35         Cr42   2.019       .  S
O36         Cr42   1.956       .  S
O36         C597   1.253       .  A
C37          O38   1.266       .  A
C37         O596   1.256   1_455  A
C37         C409   1.469       .  S
O38        Cr603   2.016   1_455  S
O39         Cr43   1.957       .  S
O39          C40   1.257       .  A
C40         C385   1.484       .  S
Cr41         O44   1.768       .  S
Cr42         O44   1.764       .  S
Cr43        O598   2.037       .  S
Cr43         O44   1.765       .  S
O45         Cr63   1.975       .  S
O45          C53   1.254       .  A
O46         Cr63   2.028       .  S
O46          C47   1.272       .  A
C47          O48   1.256       .  A
C47         C401   1.475       .  S
O48         Cr64   1.950       .  S
O49         Cr64   2.045       .  S
O49          C50   1.274       .  A
C50          O51   1.255       .  A
C50         C369   1.481       .  S
O51         Cr65   1.951       .  S
O52         Cr65   2.020       .  S
O52          C53   1.265       .  A
C53         C505   1.483       .  S
O54         Cr63   2.056       .  S
O54          C62   1.280       .  A
O55         Cr63   1.969       .  S
O55          C56   1.260       .  A
C56          O57   1.274       .  A
C56         C513   1.487       .  S
O57         Cr64   2.034       .  S
O58         Cr64   1.966       .  S
O58          C59   1.258       .  A
C59          O60   1.266       .  A
C59         C425   1.466       .  S
O60         Cr65   2.012       .  S
O61         Cr65   1.939       .  S
O61          C62   1.254       .  A
C62         C361   1.486       .  S
Cr63         O66   1.768       .  S
Cr64         O66   1.766       .  S
Cr65         O66   1.762       .  S
O67         Cr85   2.027       .  S
O67          C75   1.268       .  A
O68         Cr85   1.954       .  S
O68          C69   1.255       .  A
C69          O70   1.274       .  A
C69         C377   1.481       .  S
O70         Cr86   2.040       .  S
O71         Cr86   1.952       .  S
O71          C72   1.255       .  A
C72          O73   1.271       .  A
C72         C553   1.472       .  S
O73         Cr87   2.031       .  S
O74         Cr87   1.964       .  S
O74          C75   1.255       .  A
C75         C457   1.484       .  S
O76         Cr85   1.945       .  S
O76          C84   1.254       .  A
O77         Cr85   2.021       .  S
O77          C78   1.268       .  A
C78          O79   1.259       .  A
C78         C537   1.475       .  S
O79         Cr86   1.967       .  S
O80         Cr86   2.042       .  S
O80          C81   1.275       .  A
C81          O82   1.259       .  A
C81         C441   1.486       .  S
O82         Cr87   1.963       .  S
O83         Cr87   2.047       .  S
O83          C84   1.276       .  A
C84         C337   1.481       .  S
Cr85         O88   1.763       .  S
Cr86         O88   1.765       .  S
Cr87         O88   1.770       .  S
O89        Cr107   2.032       .  S
O89          C97   1.270       .  A
O90        Cr107   1.937       .  S
O90          C91   1.250       .  A
C91          O92   1.271       .  A
C91         C297   1.475       .  S
O92        Cr108   2.043       .  S
O93        Cr108   1.965       .  S
O93          C94   1.256       .  A
C94          O95   1.271       .  A
C94         C305   1.481       .  S
O95        Cr109   2.025       .  S
O96        Cr109   1.962       .  S
O96          C97   1.253       .  A
C97         C257   1.486       .  S
O98        Cr107   1.959       .  S
O98         C106   1.257       .  A
O99        Cr667   2.028   1_455  S
O99         C100   1.271       .  A
C100        O661   1.253   1_455  A
C100        C321   1.476       .  S
O101       Cr108   1.966       .  S
O101        C660   1.258       .  A
O102       Cr108   2.031       .  S
O102        C103   1.276       .  A
C103        O104   1.262       .  A
C103        C273   1.483       .  S
O104       Cr109   1.967       .  S
O105       Cr109   2.057       .  S
O105        C106   1.278       .  A
C106        C465   1.496       .  S
Cr107       O659   2.030       .  S
Cr107       O110   1.761       .  S
Cr108       O110   1.772       .  S
Cr109       O110   1.769       .  S
O111       Cr129   1.950       .  S
O111        C119   1.254       .  A
O112       Cr129   2.030       .  S
O112        C113   1.273       .  A
C113        O114   1.256       .  A
C113        C217   1.463       .  S
O114       Cr130   1.946       .  S
O115       Cr130   2.038       .  S
O115        C116   1.272       .  A
C116        O117   1.253       .  A
C116        C289   1.482       .  S
O117       Cr131   1.956       .  S
O118       Cr131   2.029       .  S
O118        C119   1.272       .  A
C119        C225   1.484       .  S
O120       Cr129   2.032       .  S
O120        C128   1.272       .  A
O121       Cr129   1.972       .  S
O121        C122   1.257       .  A
C122        O123   1.269       .  A
C122        C241   1.474       .  S
O123       Cr130   2.029       .  S
O124       Cr130   1.950       .  S
O124        C125   1.255       .  A
C125        O126   1.271       .  A
C125        C753   1.465   1_455  S
O126       Cr131   2.032       .  S
O127       Cr131   1.957       .  S
O127        C128   1.255       .  A
C128        C393   1.484       .  S
Cr129       O132   1.762       .  S
Cr130       O132   1.761       .  S
Cr131       O132   1.763       .  S
O133       Cr151   1.956       .  S
O133        C141   1.254       .  A
O134       Cr151   2.029       .  S
O134        C135   1.272       .  A
C135        O136   1.258       .  A
C135        C201   1.478       .  S
O136       Cr152   1.964       .  S
O137       Cr152   2.036       .  S
O137        C138   1.273       .  A
C138        O139   1.254       .  A
C138        C177   1.472       .  S
O139       Cr153   1.946       .  S
O140       Cr153   2.027       .  S
O140        C141   1.268       .  A
C141        C281   1.481       .  S
O142       Cr151   2.054       .  S
O142        C150   1.276       .  A
O143       Cr151   1.965       .  S
O143        C144   1.260       .  A
C144        O145   1.272       .  A
C144        C265   1.481       .  S
O145       Cr152   2.031       .  S
O146       Cr152   1.965       .  S
O146        C147   1.258       .  A
C147        O148   1.266       .  A
C147        C209   1.471       .  S
O148       Cr153   2.012       .  S
O149       Cr153   1.937       .  S
O149        C150   1.251       .  A
C150        C353   1.487       .  S
Cr151       O154   1.772       .  S
Cr152       O154   1.767       .  S
Cr153       O154   1.771       .  S
O155       Cr173   1.993       .  S
O155        C163   1.261       .  A
O156       Cr173   1.963       .  S
O156        C157   1.252       .  A
C157        O158   1.267       .  A
C157        C185   1.475       .  S
O158       Cr174   2.034       .  S
O159       Cr174   1.959       .  S
O159        C160   1.251       .  A
C160        O161   1.263       .  A
C160        C329   1.475       .  S
O161       Cr175   2.024       .  S
O162       Cr175   1.996       .  S
O162        C163   1.261       .  A
C163        C249   1.488       .  S
O164       Cr173   1.978       .  S
O164        C172   1.262       .  A
O165       Cr173   2.004       .  S
O165        C166   1.271       .  A
C166        O167   1.265       .  A
C166        C313   1.487       .  S
O167       Cr174   1.982       .  S
O168       Cr174   1.998       .  S
O168        C169   1.272       .  A
C169        O170   1.270       .  A
C169        C233   1.487       .  S
O170       Cr175   2.002       .  S
O171       Cr175   2.007       .  S
O171        C172   1.269       .  A
C172        C345   1.481       .  S
Cr173       O176   1.767       .  S
Cr174       O176   1.766       .  S
Cr175       O176   1.775       .  S
C177        C178   1.399       .  A
C177        C182   1.415       .  A
C178        C179   1.393       .  A
C178        H187   1.083       .  S
C179        C180   1.403       .  A
C179        H188   1.084       .  S
C180        C186   1.389       .  A
C180        C181   1.407       .  A
C181        C183   1.412       .  A
C181        C182   1.404       .  A
C182        H189   1.084       .  S
C183        C184   1.408       .  A
C183        H190   1.083       .  S
C184        C185   1.401       .  A
C184        H191   1.083       .  S
C185        C186   1.407       .  A
C186        H192   1.082       .  S
C193        C685   1.480       .  S
C193        C194   1.402       .  A
C193        C198   1.410       .  A
C194        C195   1.401       .  A
C194        H203   1.083       .  S
C195        C196   1.406       .  A
C195        H204   1.083       .  S
C196        C202   1.405       .  A
C196        C197   1.412       .  A
C197        C199   1.406       .  A
C197        C198   1.405       .  A
C198        H205   1.085       .  S
C199        C200   1.400       .  A
C199        H206   1.084       .  S
C200        C201   1.402       .  A
C200        H207   1.083       .  S
C201        C202   1.409       .  A
C202        H208   1.084       .  S
C209        C210   1.403       .  A
C209        C214   1.406       .  A
C210        C211   1.397       .  A
C210        H219   1.084       .  S
C211        C212   1.403       .  A
C211        H220   1.083       .  S
C212        C218   1.399       .  A
C212        C213   1.412       .  A
C213        C215   1.405       .  A
C213        C214   1.399       .  A
C214        H221   1.084       .  S
C215        C216   1.397       .  A
C215        H222   1.082       .  S
C216        C217   1.399       .  A
C216        H223   1.084       .  S
C217        C218   1.404       .  A
C218        H224   1.084       .  S
C225        C226   1.411       .  A
C225        C230   1.403       .  A
C226        C227   1.396       .  A
C226        H235   1.084       .  S
C227        C228   1.398   1_565  A
C227        H236   1.083       .  S
C228        C234   1.409       .  A
C228        C229   1.416       .  A
C229        C231   1.398       .  A
C229        C230   1.408   1_545  A
C230        H237   1.084       .  S
C231        C232   1.395       .  A
C231        H238   1.083       .  S
C232        C233   1.410       .  A
C232        H239   1.083       .  S
C233        C234   1.405       .  A
C234        H240   1.084       .  S
C241        C242   1.404       .  A
C241        C246   1.404       .  A
C242        C243   1.401       .  A
C242        H251   1.083       .  S
C243        C244   1.405       .  A
C243        H252   1.083       .  S
C244        C250   1.409       .  A
C244        C245   1.413       .  A
C245        C247   1.400       .  A
C245        C246   1.404       .  A
C246        H253   1.085       .  S
C247        C248   1.396       .  A
C247        H254   1.083       .  S
C248        C249   1.406       .  A
C248        H255   1.080       .  S
C249        C250   1.411       .  A
C250        H256   1.084       .  S
C257        C258   1.403       .  A
C257        C262   1.413       .  A
C258        C259   1.403   1_545  A
C258        H267   1.083       .  S
C259        C260   1.407       .  A
C259        H268   1.082       .  S
C260        C266   1.407       .  A
C260        C261   1.411       .  A
C261        C263   1.407       .  A
C261        C262   1.405   1_565  A
C262        H269   1.084       .  S
C263        C264   1.402       .  A
C263        H270   1.083       .  S
C264        C265   1.402       .  A
C264        H271   1.084       .  S
C265        C266   1.410       .  A
C266        H272   1.083       .  S
C273        C274   1.403       .  A
C273        C278   1.413       .  A
C274        C275   1.396       .  A
C274        H283   1.083       .  S
C275        C276   1.402       .  A
C275        H284   1.084       .  S
C276        C282   1.400       .  A
C276        C277   1.411       .  A
C277        C279   1.409       .  A
C277        C278   1.410       .  A
C278        H285   1.084       .  S
C279        C280   1.406       .  A
C279        H286   1.083       .  S
C280        C281   1.404       .  A
C280        H287   1.083       .  S
C281        C282   1.408       .  A
C282        H288   1.085       .  S
C289        C290   1.403       .  A
C289        C294   1.413       .  A
C290        C851   1.397       .  A
C290        H299   1.083       .  S
C291        C292   1.403   1_565  A
C291        C850   1.395       .  A
C291        H300   1.084       .  S
C292        C298   1.394       .  A
C292        C853   1.409       .  A
C293        C295   1.407       .  A
C293        C294   1.404   1_545  A
C293        C852   1.409       .  A
C294        H301   1.084       .  S
C295        C856   1.403       .  A
C295        H302   1.083       .  S
C296        C297   1.403       .  A
C296        C855   1.401       .  A
C296        H303   1.083       .  S
C297        C298   1.409       .  A
C298        H304   1.085       .  S
C305        C306   1.402       .  A
C305        C310   1.413       .  A
C306        C307   1.396       .  A
C306        H315   1.083       .  S
C307        C308   1.404       .  A
C307        H316   1.084       .  S
C308        C314   1.398       .  A
C308        C309   1.410       .  A
C309        C311   1.408       .  A
C309        C310   1.407       .  A
C310        H317   1.084       .  S
C311        C312   1.405       .  A
C311        H318   1.083       .  S
C312        C313   1.404       .  A
C312        H319   1.083       .  S
C313        C314   1.413       .  A
C314        H320   1.084       .  S
C321        C322   1.401       .  A
C321        C326   1.413       .  A
C322        C323   1.394       .  A
C322        H331   1.083       .  S
C323        C324   1.403       .  A
C323        H332   1.084       .  S
C324        C330   1.393       .  A
C324        C325   1.410       .  A
C325        C327   1.410       .  A
C325        C326   1.403       .  A
C326        H333   1.084       .  S
C327        C328   1.405       .  A
C327        H334   1.084       .  S
C328        C329   1.401       .  A
C328        H335   1.083       .  S
C329        C330   1.408       .  A
C330        H336   1.085       .  S
C337        C338   1.410       .  A
C337        C342   1.401       .  A
C338        C339   1.396       .  A
C338        H347   1.084       .  S
C339        C340   1.398       .  A
C339        H348   1.083       .  S
C340        C346   1.409       .  A
C340        C341   1.418       .  A
C341        C343   1.397       .  A
C341        C342   1.407       .  A
C342        H349   1.084       .  S
C343        C344   1.393       .  A
C343        H350   1.083       .  S
C344        C345   1.410       .  A
C344        H351   1.083       .  S
C345        C346   1.403       .  A
C346        H352   1.084       .  S
C353        C354   1.413       .  A
C353        C358   1.403       .  A
C354        C355   1.393       .  A
C354        H363   1.083       .  S
C355        C356   1.395       .  A
C355        H364   1.083       .  S
C356        C362   1.408       .  A
C356        C357   1.418       .  A
C357        C359   1.397       .  A
C357        C358   1.410       .  A
C358        H365   1.084       .  S
C359        C360   1.396       .  A
C359        H366   1.083       .  S
C360        C361   1.413       .  A
C360        H367   1.083       .  S
C361        C362   1.401       .  A
C362        H368   1.084       .  S
C369        C370   1.405   1_556  A
C369        C374   1.410       .  A
C370        C371   1.401       .  A
C370        H379   1.083       .  S
C371        C372   1.406       .  A
C371        H380   1.084       .  S
C372        C378   1.403       .  A
C372        C373   1.410   1_554  A
C373        C375   1.403       .  A
C373        C374   1.399       .  A
C374        H381   1.084       .  S
C375        C376   1.397       .  A
C375        H382   1.084       .  S
C376        C377   1.404   1_556  A
C376        H383   1.083       .  S
C377        C378   1.412       .  A
C378        H384   1.084       .  S
C385        C386   1.404       .  A
C385        C950   1.411       .  A
C386        C387   1.400       .  A
C386        H395   1.083       .  S
C387        C388   1.405       .  A
C387        H396   1.084       .  S
C388        C394   1.404       .  A
C388        C949   1.411       .  A
C389        C391   1.404       .  A
C389        C390   1.402   1_455  A
C389        C948   1.410   1_455  A
C390        C945   1.412       .  A
C390        H397   1.085   1_655  S
C391        C392   1.399       .  A
C391        H398   1.084       .  S
C392        C393   1.404       .  A
C392        H399   1.083       .  S
C393        C954   1.412       .  A
C394        C953   1.411       .  A
C394        H400   1.085       .  S
C401        C402   1.402       .  A
C401        C406   1.409       .  A
C402        C403   1.399       .  A
C402        H411   1.083       .  S
C403        C404   1.405   1_556  A
C403        H412   1.083       .  S
C404        C410   1.401       .  A
C404        C405   1.412       .  A
C405        C407   1.405       .  A
C405        C406   1.400   1_554  A
C406        H413   1.085   1_556  S
C407        C408   1.399       .  A
C407        H414   1.084       .  S
C408        C409   1.401       .  A
C408        H415   1.083       .  S
C409        C410   1.406       .  A
C410        H416   1.085       .  S
C417        C418   1.402       .  A
C417        C422   1.405       .  A
C418        C419   1.398       .  A
C418        H427   1.083       .  S
C419        C420   1.404   1_554  A
C419        H428   1.083       .  S
C420        C426   1.400       .  A
C420        C421   1.413       .  A
C421        C423   1.403       .  A
C421        C422   1.399   1_556  A
C422        H429   1.084   1_554  S
C423        C424   1.396       .  A
C423        H430   1.083       .  S
C424        C425   1.402       .  A
C424        H431   1.083       .  S
C425        C426   1.405       .  A
C426        H432   1.084       .  S
C433        C434   1.402   1_565  A
C433        C438   1.414       .  A
C434        C435   1.402       .  A
C434        H443   1.083       .  S
C435        C436   1.406       .  A
C435        H444   1.083       .  S
C436        C442   1.407       .  A
C436        C437   1.411       .  A
C437        C439   1.408       .  A
C437        C438   1.409   1_545  A
C438        H445   1.084       .  S
C439        C440   1.404       .  A
C439        H446   1.083       .  S
C440        C441   1.404       .  A
C440        H447   1.083       .  S
C441        C442   1.411       .  A
C442        H448   1.084       .  S
C449        C450   1.402       .  A
C449        C454   1.407       .  A
C450        C451   1.398       .  A
C450        H459   1.084       .  S
C451        C452   1.404       .  A
C451        H460   1.083       .  S
C452        C458   1.403       .  A
C452        C453   1.413       .  A
C453        C455   1.405       .  A
C453        C454   1.406       .  A
C454        H461   1.084       .  S
C455        C456   1.401       .  A
C455        H462   1.083       .  S
C456        C457   1.404       .  A
C456        H463   1.083       .  S
C457        C458   1.410       .  A
C458        H464   1.084       .  S
C465        C470   1.415       .  A
C465       C1026   1.406       .  A
C466        C467   1.405       .  A
C466       C1025   1.406       .  A
C466        H475   1.083       .  S
C467        C468   1.408       .  A
C467        H476   1.083       .  S
C468        C474   1.412   1_655  A
C468       C1029   1.410   1_655  A
C469        C471   1.406       .  A
C469        C470   1.409       .  A
C469       C1028   1.410       .  A
C470        H477   1.084       .  S
C471        C472   1.403       .  A
C471        H478   1.083       .  S
C472       C1033   1.404       .  A
C472        H479   1.083       .  S
C473        C474   1.416       .  A
C473       C1032   1.405       .  A
C474        H480   1.084   1_455  S
C481        C482   1.403   1_556  A
C481        C486   1.408       .  A
C482        C483   1.397       .  A
C482        H491   1.083       .  S
C483        C484   1.404       .  A
C483        H492   1.083       .  S
C484        C485   1.411   1_554  A
C484       C1050   1.398   1_445  A
C485        C486   1.397       .  A
C485       C1047   1.403   1_445  A
C486        H493   1.084       .  S
C487        C488   1.398       .  A
C487       C1045   1.405       .  A
C487        H494   1.084       .  S
C488        C489   1.402   1_556  A
C488        H495   1.083       .  S
C489        C490   1.409       .  A
C490       C1044   1.394   1_565  A
C490        H496   1.084       .  S
C497        C498   1.405       .  A
C497        C502   1.408       .  A
C498        C499   1.400       .  A
C498        H507   1.083       .  S
C499        C500   1.404       .  A
C499        H508   1.084       .  S
C500        C506   1.406       .  A
C500        C501   1.413       .  A
C501        C503   1.405       .  A
C501        C502   1.407       .  A
C502        H509   1.084       .  S
C503        C504   1.401       .  A
C503        H510   1.084       .  S
C504        C505   1.404       .  A
C504        H511   1.083       .  S
C505        C506   1.409       .  A
C506        H512   1.085       .  S
C513        C514   1.403       .  A
C513        C518   1.412       .  A
C514        C515   1.401       .  A
C514        H523   1.083       .  S
C515        C516   1.405   1_565  A
C515        H524   1.084   1_565  S
C516        C522   1.406       .  A
C516        C517   1.412   1_545  A
C517        C519   1.407       .  A
C517        C518   1.410       .  A
C518        H525   1.084       .  S
C519        C520   1.404   1_565  A
C519        H526   1.084       .  S
C520        C521   1.404       .  A
C520        H527   1.083       .  S
C521        C522   1.411       .  A
C522        H528   1.085       .  S
C529        C530   1.402       .  A
C529        C534   1.407       .  A
C530        C531   1.400       .  A
C530        H539   1.083       .  S
C531        C532   1.405       .  A
C531        H540   1.083       .  S
C532        C538   1.404   1_556  A
C532        C533   1.413   1_556  A
C533        C535   1.404       .  A
C533        C534   1.403   1_554  A
C534        H541   1.084   1_556  S
C535        C536   1.398       .  A
C535        H542   1.083       .  S
C536        C537   1.403       .  A
C536        H543   1.083       .  S
C537        C538   1.408       .  A
C538        H544   1.084       .  S
C545        C572   1.473       .  S
C545        C546   1.401       .  A
C545        C550   1.410       .  A
C546        C547   1.396       .  A
C546        H555   1.083       .  S
C547        C548   1.403       .  A
C547        H556   1.083       .  S
C548        C554   1.398       .  A
C548        C549   1.412       .  A
C549        C551   1.408   1_556  A
C549        C550   1.404       .  A
C550        H557   1.085       .  S
C551        C552   1.402       .  A
C551        H558   1.084       .  S
C552        C553   1.402       .  A
C552        H559   1.083       .  S
C553        C554   1.405   1_554  A
C554        H560   1.085       .  S
O561       Cr579   2.023       .  S
O561        C569   1.267       .  A
O562       Cr579   1.946       .  S
O562        C563   1.253       .  A
C563        O564   1.269       .  A
C563       C1041   1.471       .  S
O564       Cr580   2.023       .  S
O565       Cr580   1.953       .  S
O565        C566   1.253       .  A
C566        O567   1.271       .  A
C566       C1089   1.480       .  S
O567       Cr581   2.034       .  S
O568       Cr581   1.964       .  S
O568        C569   1.254       .  A
C569       C1081   1.480       .  S
O570       Cr579   1.960       .  S
O570        C578   1.258       .  A
O571       Cr579   2.023       .  S
O571        C572   1.269       .  A
C572        O573   1.255       .  A
O573       Cr580   1.959       .  S
O574       Cr580   2.014       .  S
O574        C575   1.270       .  A
C575        O576   1.260       .  A
C575       C1057   1.465       .  S
O576       Cr581   1.962       .  S
O577       Cr581   2.054       .  S
O577        C578   1.280       .  A
C578       C1033   1.496       .  S
Cr579       O582   1.766       .  S
Cr580       O582   1.766       .  S
Cr581       O582   1.769       .  S
O583       Cr601   1.962       .  S
O583        C591   1.254       .  A
O584       Cr601   2.021       .  S
O584        C585   1.268       .  A
C585        O586   1.255       .  A
C585        C977   1.475       .  S
O586       Cr602   1.957       .  S
O587       Cr602   2.026       .  S
O587        C588   1.271       .  A
C588        O589   1.256       .  A
C588       C1049   1.473       .  S
O589       Cr603   1.951       .  S
O590       Cr603   2.024       .  S
O590        C591   1.267       .  A
C591        C993   1.477       .  S
O592       Cr601   2.041       .  S
O592        C600   1.275       .  A
O593       Cr601   1.962       .  S
O593        C594   1.259       .  A
C594        O595   1.272       .  A
C594       C1009   1.474       .  S
O595       Cr602   2.021       .  S
O596       Cr602   1.963       .  S
C597        O598   1.270       .  A
C597        C969   1.473       .  S
O599       Cr603   1.954       .  S
O599        C600   1.257       .  A
C600        C945   1.486       .  S
Cr601       O604   1.771       .  S
Cr602       O604   1.766       .  S
Cr603       O604   1.769       .  S
O605       Cr623   1.953       .  S
O605        C613   1.256       .  A
O606       Cr623   2.022       .  S
O606        C607   1.269       .  A
C607        O608   1.256       .  A
C607        C961   1.480       .  S
O608       Cr624   1.966       .  S
O609       Cr624   2.036       .  S
O609        C610   1.273       .  A
C610        O611   1.256       .  A
C610        C929   1.481       .  S
O611       Cr625   1.953       .  S
O612       Cr625   2.023       .  S
O612        C613   1.268       .  A
C613       C1065   1.478       .  S
O614       Cr623   2.030       .  S
O614        C622   1.272       .  A
O615       Cr623   1.958       .  S
O615        C616   1.259       .  A
C616        O617   1.275       .  A
C616       C1073   1.481       .  S
O617       Cr624   2.037       .  S
O618       Cr624   1.966       .  S
O618        C619   1.257       .  A
C619        O620   1.266       .  A
C619        C985   1.473       .  S
O620       Cr625   2.012       .  S
O621       Cr625   1.959       .  S
O621        C622   1.256       .  A
C622        C921   1.481       .  S
Cr623       O626   1.768       .  S
Cr624       O626   1.767       .  S
Cr625       O626   1.768       .  S
O627       Cr645   2.024       .  S
O627        C635   1.268       .  A
O628       Cr645   1.955       .  S
O628        C629   1.256       .  A
C629        O630   1.273       .  A
C629        C937   1.480       .  S
O630       Cr646   2.034       .  S
O631       Cr646   1.951       .  S
O631        C632   1.254       .  A
C632        O633   1.269       .  A
C632       C1113   1.471       .  S
O633       Cr647   2.027       .  S
O634       Cr647   1.960       .  S
O634        C635   1.255       .  A
C635       C1017   1.480       .  S
O636       Cr645   1.957       .  S
O636        C644   1.256       .  A
O637       Cr645   2.019       .  S
O637        C638   1.267       .  A
C638        O639   1.256       .  A
C638       C1097   1.469       .  S
O639       Cr646   1.963       .  S
O640       Cr646   2.026       .  S
O640        C641   1.273       .  A
C641        O642   1.261       .  A
C641       C1001   1.482       .  S
O642       Cr647   1.966       .  S
O643       Cr647   2.043       .  S
O643        C644   1.275       .  A
C644        C897   1.480       .  S
Cr645       O648   1.766       .  S
Cr646       O648   1.764       .  S
Cr647       O648   1.770       .  S
O649       Cr667   2.032       .  S
O649        C657   1.271       .  A
O650       Cr667   1.944       .  S
O650        C651   1.253       .  A
C651        O652   1.275       .  A
C651        C857   1.484       .  S
O652       Cr668   2.051       .  S
O653       Cr668   1.965       .  S
O653        C654   1.257       .  A
C654        O655   1.272       .  A
C654        C865   1.479       .  S
O655       Cr669   2.027       .  S
O656       Cr669   1.958       .  S
O656        C657   1.255       .  A
C657        C817   1.485       .  S
O658       Cr667   1.962       .  S
O658        C666   1.257       .  A
O659        C660   1.272       .  A
C660        C881   1.483       .  S
O661       Cr668   1.955       .  S
O662       Cr668   2.029       .  S
O662        C663   1.274       .  A
C663        O664   1.261       .  A
C663        C833   1.483       .  S
O664       Cr669   1.967       .  S
O665       Cr669   2.052       .  S
O665        C666   1.277       .  A
C666       C1025   1.496       .  S
Cr667       O670   1.765       .  S
Cr668       O670   1.770       .  S
Cr669       O670   1.764       .  S
O671       Cr689   1.954       .  S
O671        C679   1.255       .  A
O672       Cr689   2.038       .  S
O672        C673   1.273       .  A
C673        O674   1.256       .  A
C673        C777   1.480       .  S
O674       Cr690   1.957       .  S
O675       Cr690   2.032       .  S
O675        C676   1.270       .  A
C676        O677   1.250       .  A
C676        C849   1.474       .  S
O677       Cr691   1.946       .  S
O678       Cr691   2.028       .  S
O678        C679   1.272       .  A
C679        C785   1.480       .  S
O680       Cr689   2.031       .  S
O680        C688   1.272       .  A
O681       Cr689   1.963       .  S
O681        C682   1.257       .  A
C682        O683   1.272       .  A
C682        C801   1.473       .  S
O683       Cr690   2.029       .  S
O684       Cr690   1.961       .  S
O684        C685   1.258       .  A
C685        O686   1.273       .  A
O686       Cr691   2.037       .  S
O687       Cr691   1.961       .  S
O687        C688   1.256       .  A
C688        C953   1.486       .  S
Cr689       O692   1.766       .  S
Cr690       O692   1.767       .  S
Cr691       O692   1.760       .  S
O693       Cr711   1.958       .  S
O693        C701   1.254       .  A
O694       Cr711   2.010       .  S
O694        C695   1.267       .  A
C695        O696   1.254       .  A
C695        C761   1.464       .  S
O696       Cr712   1.955       .  S
O697       Cr712   2.031       .  S
O697        C698   1.270       .  A
C698        O699   1.253       .  A
C698        C737   1.464       .  S
O699       Cr713   1.940       .  S
O700       Cr713   2.035       .  S
O700        C701   1.270       .  A
C701        C841   1.483       .  S
O702       Cr711   2.034       .  S
O702        C710   1.273       .  A
O703       Cr711   1.966       .  S
O703        C704   1.261       .  A
C704        O705   1.273       .  A
C704        C825   1.478       .  S
O705       Cr712   2.026       .  S
O706       Cr712   1.959       .  S
O706        C707   1.256       .  A
C707        O708   1.269       .  A
C707        C769   1.473       .  S
O708       Cr713   2.030       .  S
O709       Cr713   1.949       .  S
O709        C710   1.256       .  A
C710        C913   1.482       .  S
Cr711       O714   1.771       .  S
Cr712       O714   1.766       .  S
Cr713       O714   1.768       .  S
O715       Cr733   1.983       .  S
O715        C723   1.261       .  A
O716       Cr733   1.958       .  S
O716        C717   1.248       .  A
C717        O718   1.263       .  A
C717        C745   1.468       .  S
O718       Cr734   2.022       .  S
O719       Cr734   1.969       .  S
O719        C720   1.257       .  A
C720        O721   1.269       .  A
C720        C889   1.488       .  S
O721       Cr735   2.025       .  S
O722       Cr735   2.003       .  S
O722        C723   1.264       .  A
C723        C809   1.482       .  S
O724       Cr733   1.973       .  S
O724        C732   1.259       .  A
O725       Cr733   2.003       .  S
O725        C726   1.271       .  A
C726        O727   1.267       .  A
C726        C873   1.490       .  S
O727       Cr734   1.987       .  S
O728       Cr734   1.999       .  S
O728        C729   1.269       .  A
C729        O730   1.265       .  A
C729        C793   1.473       .  S
O730       Cr735   1.990       .  S
O731       Cr735   2.019       .  S
O731        C732   1.269       .  A
C732        C905   1.486       .  S
Cr733       O736   1.776       .  S
Cr734       O736   1.766       .  S
Cr735       O736   1.775       .  S
C737        C738   1.399       .  A
C737        C742   1.409       .  A
C738        C739   1.395       .  A
C738        H747   1.083       .  S
C739        C740   1.405       .  A
C739        H748   1.084       .  S
C740        C746   1.390       .  A
C740        C741   1.408       .  A
C741        C743   1.408       .  A
C741        C742   1.396       .  A
C742        H749   1.085       .  S
C743        C744   1.402       .  A
C743        H750   1.083       .  S
C744        C745   1.399       .  A
C744        H751   1.083       .  S
C745        C746   1.409       .  A
C746        H752   1.084       .  S
C753        C754   1.401       .  A
C753        C758   1.404       .  A
C754        C755   1.400       .  A
C754        H763   1.083       .  S
C755        C756   1.406       .  A
C755        H764   1.084       .  S
C756        C762   1.399       .  A
C756        C757   1.412       .  A
C757        C759   1.403       .  A
C757        C758   1.394       .  A
C758        H765   1.085       .  S
C759        C760   1.394       .  A
C759        H766   1.084       .  S
C760        C761   1.400       .  A
C760        H767   1.083       .  S
C761        C762   1.406       .  A
C762        H768   1.085       .  S
C769        C770   1.401       .  A
C769        C774   1.408       .  A
C770        C771   1.401       .  A
C770        H779   1.083       .  S
C771        C772   1.407       .  A
C771        H780   1.083       .  S
C772        C778   1.403       .  A
C772        C773   1.411       .  A
C773        C775   1.406       .  A
C773        C774   1.402       .  A
C774        H781   1.084       .  S
C775        C776   1.400       .  A
C775        H782   1.083       .  S
C776        C777   1.402       .  A
C776        H783   1.083       .  S
C777        C778   1.411       .  A
C778        H784   1.084       .  S
C785        C786   1.408       .  A
C785        C790   1.403       .  A
C786        C787   1.398   1_565  A
C786        H795   1.083       .  S
C787        C788   1.400       .  A
C787        H796   1.083       .  S
C788        C794   1.410       .  A
C788        C789   1.418       .  A
C789        C791   1.399       .  A
C789        C790   1.407   1_545  A
C790        H797   1.084       .  S
C791        C792   1.394       .  A
C791        H798   1.083       .  S
C792        C793   1.406       .  A
C792        H799   1.084       .  S
C793        C794   1.402       .  A
C794        H800   1.084       .  S
C801        C802   1.405       .  A
C801        C806   1.403       .  A
C802        C803   1.400       .  A
C802        H811   1.084       .  S
C803        C804   1.404       .  A
C803        H812   1.083       .  S
C804        C810   1.407       .  A
C804        C805   1.414       .  A
C805        C807   1.399       .  A
C805        C806   1.401       .  A
C806        H813   1.084       .  S
C807        C808   1.394       .  A
C807        H814   1.083       .  S
C808        C809   1.406       .  A
C808        H815   1.080       .  S
C809        C810   1.408       .  A
C810        H816   1.084       .  S
C817        C818   1.404       .  A
C817        C822   1.410       .  A
C818        C819   1.404   1_545  A
C818        H827   1.083       .  S
C819        C820   1.407       .  A
C819        H828   1.082       .  S
C820        C826   1.408       .  A
C820        C821   1.411       .  A
C821        C823   1.404       .  A
C821        C822   1.402   1_565  A
C822        H829   1.084       .  S
C823        C824   1.398       .  A
C823        H830   1.082   1_565  S
C824        C825   1.402       .  A
C824        H831   1.084       .  S
C825        C826   1.411       .  A
C826        H832   1.083       .  S
C833        C834   1.404       .  A
C833        C838   1.412       .  A
C834        C835   1.398       .  A
C834        H843   1.083       .  S
C835        C836   1.404       .  A
C835        H844   1.084       .  S
C836        C842   1.402       .  A
C836        C837   1.411       .  A
C837        C839   1.408       .  A
C837        C838   1.408       .  A
C838        H845   1.084       .  S
C839        C840   1.405       .  A
C839        H846   1.083       .  S
C840        C841   1.403       .  A
C840        H847   1.083       .  S
C841        C842   1.410       .  A
C842        H848   1.085       .  S
C849        C850   1.402       .  A
C849        C854   1.412       .  A
C850        H859   1.083       .  S
C851        C852   1.404   1_565  A
C851        H860   1.083   1_455  S
C852        C858   1.399   1_455  A
C853        C855   1.407       .  A
C853        C854   1.399   1_545  A
C854        H861   1.084       .  S
C855        H862   1.084       .  S
C856        C857   1.404   1_455  A
C856        H863   1.083       .  S
C857        C858   1.412       .  A
C858        H864   1.084       .  S
C865        C866   1.401       .  A
C865        C870   1.414       .  A
C866        C867   1.393       .  A
C866        H875   1.083       .  S
C867        C868   1.402       .  A
C867        H876   1.084       .  S
C868        C874   1.397       .  A
C868        C869   1.410       .  A
C869        C871   1.410       .  A
C869        C870   1.411       .  A
C870        H877   1.084       .  S
C871        C872   1.408       .  A
C871        H878   1.084       .  S
C872        C873   1.406       .  A
C872        H879   1.083       .  S
C873        C874   1.411       .  A
C874        H880   1.084       .  S
C881        C882   1.402       .  A
C881        C886   1.415       .  A
C882        C883   1.397       .  A
C882        H891   1.083       .  S
C883        C884   1.404       .  A
C883        H892   1.084       .  S
C884        C890   1.400       .  A
C884        C885   1.410       .  A
C885        C887   1.410       .  A
C885        C886   1.411       .  A
C886        H893   1.084       .  S
C887        C888   1.408       .  A
C887        H894   1.084       .  S
C888        C889   1.404       .  A
C888        H895   1.083       .  S
C889        C890   1.412       .  A
C890        H896   1.085       .  S
C897        C898   1.408       .  A
C897        C902   1.401       .  A
C898        C899   1.399       .  A
C898        H907   1.083       .  S
C899        C900   1.401       .  A
C899        H908   1.083       .  S
C900        C906   1.412       .  A
C900        C901   1.417       .  A
C901        C903   1.396       .  A
C901        C902   1.406       .  A
C902        H909   1.084       .  S
C903        C904   1.392       .  A
C903        H910   1.083       .  S
C904        C905   1.411       .  A
C904        H911   1.083       .  S
C905        C906   1.405       .  A
C906        H912   1.083       .  S
C913        C914   1.404       .  A
C913        C918   1.410       .  A
C914        C915   1.401       .  A
C914        H923   1.083       .  S
C915        C916   1.406       .  A
C915        H924   1.083       .  S
C916        C922   1.403       .  A
C916        C917   1.411       .  A
C917        C919   1.403       .  A
C917        C918   1.399       .  A
C918        H925   1.084       .  S
C919        C920   1.396       .  A
C919        H926   1.084       .  S
C920        C921   1.404       .  A
C920        H927   1.083       .  S
C921        C922   1.411       .  A
C922        H928   1.084       .  S
C929        C930   1.404   1_556  A
C929        C934   1.411       .  A
C930        C931   1.398       .  A
C930        H939   1.083       .  S
C931        C932   1.404       .  A
C931        H940   1.083       .  S
C932        C938   1.400       .  A
C932        C933   1.410   1_554  A
C933        C935   1.405       .  A
C933        C934   1.401       .  A
C934        H941   1.084       .  S
C935        C936   1.399       .  A
C935        H942   1.084       .  S
C936        C937   1.404   1_556  A
C936        H943   1.083       .  S
C937        C938   1.410       .  A
C938        H944   1.084       .  S
C945        C946   1.405       .  A
C946        C947   1.401       .  A
C946        H955   1.083       .  S
C947        C948   1.406       .  A
C947        H956   1.084       .  S
C948        C954   1.404   1_655  A
C949        C951   1.404       .  A
C949        C950   1.404       .  A
C950        H957   1.085       .  S
C951        C952   1.400       .  A
C951        H958   1.084       .  S
C952        C953   1.405       .  A
C952        H959   1.083       .  S
C954        H960   1.085   1_455  S
C961        C962   1.403       .  A
C961        C966   1.410   1_556  A
C962        C963   1.398       .  A
C962        H971   1.083       .  S
C963        C964   1.404   1_556  A
C963        H972   1.084       .  S
C964        C970   1.401       .  A
C964        C965   1.412       .  A
C965        C967   1.408       .  A
C965        C966   1.405       .  A
C966        H973   1.084       .  S
C967        C968   1.403       .  A
C967        H974   1.083       .  S
C968        C969   1.400       .  A
C968        H975   1.083       .  S
C969        C970   1.407       .  A
C970        H976   1.085       .  S
C977        C978   1.402       .  A
C977        C982   1.407       .  A
C978        C979   1.400       .  A
C978        H987   1.083       .  S
C979        C980   1.405   1_554  A
C979        H988   1.083       .  S
C980        C986   1.403       .  A
C980        C981   1.412       .  A
C981        C983   1.404       .  A
C981        C982   1.401   1_556  A
C982        H989   1.084   1_554  S
C983        C984   1.398       .  A
C983        H990   1.083       .  S
C984        C985   1.403       .  A
C984        H991   1.083       .  S
C985        C986   1.408       .  A
C986        H992   1.084       .  S
C993        C994   1.402   1_565  A
C993        C998   1.407       .  A
C994        C995   1.403       .  A
C994       H1003   1.083   1_545  S
C995        C996   1.407       .  A
C995       H1004   1.083       .  S
C996       C1002   1.407       .  A
C996        C997   1.412       .  A
C997        C999   1.403       .  A
C997        C998   1.402   1_545  A
C998       H1005   1.085       .  S
C999       C1000   1.398       .  A
C999       H1006   1.083       .  S
C1000      C1001   1.404       .  A
C1000      H1007   1.083       .  S
C1001      C1002   1.412       .  A
C1002      H1008   1.084       .  S
C1009      C1010   1.402       .  A
C1009      C1014   1.408       .  A
C1010      C1011   1.397       .  A
C1010      H1019   1.083       .  S
C1011      C1012   1.404       .  A
C1011      H1020   1.083       .  S
C1012      C1018   1.400       .  A
C1012      C1013   1.412       .  A
C1013      C1015   1.406       .  A
C1013      C1014   1.404       .  A
C1014      H1021   1.084       .  S
C1015      C1016   1.401       .  A
C1015      H1022   1.083       .  S
C1016      C1017   1.404       .  A
C1016      H1023   1.083       .  S
C1017      C1018   1.409       .  A
C1018      H1024   1.084       .  S
C1025      C1030   1.414   1_655  A
C1026      C1027   1.405       .  A
C1026      H1035   1.083       .  S
C1027      C1028   1.408       .  A
C1027      H1036   1.083       .  S
C1028      C1034   1.411       .  A
C1029      C1031   1.405       .  A
C1029      C1030   1.408       .  A
C1030      H1037   1.084       .  S
C1031      C1032   1.401       .  A
C1031      H1038   1.083       .  S
C1032      H1039   1.083       .  S
C1033      C1034   1.417       .  A
C1034      H1040   1.084       .  S
C1041      C1042   1.402   1_556  A
C1041      C1046   1.409       .  A
C1042      C1043   1.395       .  A
C1042      H1051   1.083       .  S
C1043      C1044   1.404       .  A
C1043      H1052   1.084       .  S
C1044      C1045   1.409   1_544  A
C1045      C1046   1.395   1_565  A
C1046      H1053   1.084       .  S
C1047      C1048   1.396       .  A
C1047      H1054   1.083       .  S
C1048      C1049   1.403   1_556  A
C1048      H1055   1.083       .  S
C1049      C1050   1.409       .  A
C1050      H1056   1.084       .  S
C1057      C1058   1.400       .  A
C1057      C1062   1.406       .  A
C1058      C1059   1.394       .  A
C1058      H1067   1.083       .  S
C1059      C1060   1.402       .  A
C1059      H1068   1.084       .  S
C1060      C1066   1.396       .  A
C1060      C1061   1.412       .  A
C1061      C1063   1.405       .  A
C1061      C1062   1.403       .  A
C1062      H1069   1.085       .  S
C1063      C1064   1.401       .  A
C1063      H1070   1.084       .  S
C1064      C1065   1.405       .  A
C1064      H1071   1.083       .  S
C1065      C1066   1.407       .  A
C1066      H1072   1.085       .  S
C1073      C1074   1.402       .  A
C1073      C1078   1.411       .  A
C1074      C1075   1.400       .  A
C1074      H1083   1.083       .  S
C1075      C1076   1.405       .  A
C1075      H1084   1.084   1_565  S
C1076      C1082   1.403   1_565  A
C1076      C1077   1.411       .  A
C1077      C1079   1.407       .  A
C1077      C1078   1.405       .  A
C1078      H1085   1.084       .  S
C1079      C1080   1.402   1_565  A
C1079      H1086   1.083       .  S
C1080      C1081   1.402       .  A
C1080      H1087   1.083       .  S
C1081      C1082   1.410       .  A
C1082      H1088   1.085       .  S
C1089      C1090   1.402       .  A
C1089      C1094   1.411       .  A
C1090      C1091   1.400       .  A
C1090      H1099   1.083       .  S
C1091      C1092   1.405       .  A
C1091      H1100   1.083       .  S
C1092      C1098   1.402   1_556  A
C1092      C1093   1.411   1_556  A
C1093      C1095   1.406       .  A
C1093      C1094   1.402   1_554  A
C1094      H1101   1.084       .  S
C1095      C1096   1.400       .  A
C1095      H1102   1.083       .  S
C1096      C1097   1.401       .  A
C1096      H1103   1.083       .  S
C1097      C1098   1.406       .  A
C1098      H1104   1.084       .  S
C1105      C1106   1.402       .  A
C1105      C1110   1.408       .  A
C1106      C1107   1.398       .  A
C1106      H1115   1.083       .  S
C1107      C1108   1.405       .  A
C1107      H1116   1.083       .  S
C1108      C1114   1.400       .  A
C1108      C1109   1.412       .  A
C1109      C1111   1.406   1_556  A
C1109      C1110   1.402       .  A
C1110      H1117   1.084       .  S
C1111      C1112   1.400       .  A
C1111      H1118   1.083       .  S
C1112      C1113   1.401       .  A
C1112      H1119   1.083       .  S
C1113      C1114   1.407   1_554  A
C1114      H1120   1.085       .  S
