geometry optimzed in LAMMPS
_audit_creation_date              2020-12-01 
_audit_creation_method            'lammps2cif' 
_symmetry_space_group_name_H-M    'P1' 
_symmetry_Int_Tables_number       1 
_symmetry_cell_setting            triclinic 
loop_ 
_symmetry_equiv_pos_as_xyz 
  x,y,z 
_cell_length_a                    43.6017023 
_cell_length_b                    31.23535861437376 
_cell_length_c                    39.35636189708035 
_cell_angle_alpha                 89.63316799977036 
_cell_angle_beta                  89.79032652419767 
_cell_angle_gamma                 88.75936483680846 
loop_ 
_atom_site_label 
_atom_site_type_symbol 
_atom_site_fract_x 
_atom_site_fract_y 
_atom_site_fract_z 
_atom_site_charge 
O1          O  0.14767997  0.84479813  0.40405501    -0.85600
O2          O  0.12300913  0.91729429  0.37545090    -0.82600
C3          C  0.12043290  0.95645655  0.36856428     0.97900
O4          O  0.14404913  0.97835909  0.36376575    -0.82600
O5          O  0.18262094  0.97967736  0.42064654    -0.85300
C6          C  0.20353151  0.96746815  0.44074076     1.02400
O7          O  0.22000291  0.93502867  0.43470429    -0.78000
O8          O  0.18047152  0.87100281  0.44029419    -0.78200
C9          C  0.15576195  0.85206481  0.43484844     1.02400
O10         O  0.18725548  0.83649245  0.34054518    -0.85600
O11         O  0.15876044  0.91259692  0.31457485    -0.82600
C12         C  0.17656804  0.94187040  0.30385566     0.97900
O13         O  0.19593146  0.95776472  0.32332839    -0.82600
O14         O  0.23417854  0.96685986  0.37667562    -0.85300
C15         C  0.25487691  0.93809395  0.37362563     1.02400
O16         O  0.24831281  0.89897125  0.37727003    -0.78100
O17         O  0.21227649  0.82648496  0.38783649    -0.78200
C18         C  0.20650537  0.81524079  0.35806335     1.02400
Cr19       Cr  0.15687473  0.87946796  0.36004918     1.93700
Cr20       Cr  0.18870703  0.96584521  0.37192166     1.93200
Cr21       Cr  0.21287886  0.88455900  0.40734388     1.39100
O22         O  0.18591452  0.90988001  0.37951187    -1.23300
O23         O  0.35239918  0.62199770  0.40156397    -0.85600
O24         O  0.36671363  0.55678601  0.35775698    -0.82600
C25         C  0.37227308  0.52635857  0.37834902     0.97900
O26         O  0.35095998  0.51171228  0.39652502    -0.82600
O27         O  0.29229896  0.50138947  0.42422373    -0.85300
C28         C  0.28886511  0.52413079  0.45009344     1.02400
O29         O  0.29544451  0.56296946  0.44905473    -0.78000
O30         O  0.30928422  0.64185537  0.42531614    -0.78200
C31         C  0.33825836  0.63809594  0.42679266     1.02400
O32         O  0.30589296  0.65472537  0.35341230    -0.85600
O33         O  0.31667704  0.57898078  0.31366543    -0.82600
C34         C  0.31833045  0.53883281  0.30780302     0.97900
O35         O  0.32378302  0.51280726  0.33159947    -0.82600
O36         O  0.26601477  0.51252793  0.36106161    -0.85300
C37         C  0.24344651  0.52694362  0.37815007     1.02400
O38         O  0.24674498  0.55568414  0.40034886    -0.78100
O39         O  0.26236242  0.63269023  0.37351691    -0.78200
C40         C  0.27720960  0.66032505  0.35744010     1.02400
Cr41       Cr  0.33328125  0.60155084  0.35813366     1.93700
Cr42       Cr  0.30852272  0.51426089  0.37873094     1.93200
Cr43       Cr  0.28051395  0.59650971  0.40978001     1.39100
O44         O  0.30692967  0.57092923  0.38180885    -1.23300
O45         O  0.13002366  0.13085610  0.08656210    -0.85600
O46         O  0.11604189  0.06495466  0.12975556    -0.82600
C47         C  0.11033062  0.03695053  0.10782756     0.97900
O48         O  0.13186663  0.02207628  0.08950878    -0.82600
O49         O  0.19006152  0.01031937  0.06030226    -0.85300
C50         C  0.19263857  0.03515187  0.03530347     1.02400
O51         O  0.18601525  0.07400672  0.03844873    -0.78000
O52         O  0.17342262  0.15152819  0.06549488    -0.78200
C53         C  0.14475975  0.14757771  0.06220487     1.02400
O54         O  0.17707181  0.15970823  0.13541426    -0.85600
O55         O  0.16570974  0.08217648  0.17414596    -0.82600
C56         C  0.16408142  0.04178463  0.17939660     0.97900
O57         O  0.15982783  0.01674187  0.15492271    -0.82600
O58         O  0.21691407  0.01523954  0.12418465    -0.85300
C59         C  0.23929657  0.02883552  0.10702183     1.02400
O60         O  0.23563462  0.05898483  0.08556838    -0.78100
O61         O  0.22058808  0.13459871  0.11587117    -0.78200
C62         C  0.20590281  0.16342534  0.13150321     1.02400
Cr63       Cr  0.14931644  0.10804950  0.13001634     1.93700
Cr64       Cr  0.17435301  0.02057763  0.10704542     1.93200
Cr65       Cr  0.20200025  0.10293659  0.07847313     1.39100
O66         O  0.17585052  0.07718598  0.10586742    -1.23300
O67         O  0.33093590  0.34435288  0.08404207    -0.85600
O68         O  0.35696648  0.41636740  0.11029740    -0.82600
C69         C  0.35867477  0.45567959  0.11692803     0.97900
O70         O  0.33514789  0.47753834  0.12476762    -0.82600
O71         O  0.29460546  0.48286368  0.07131256    -0.85300
C72         C  0.27298249  0.47212857  0.05244142     1.02400
O73         O  0.25685109  0.44059786  0.05992624    -0.78000
O74         O  0.29849227  0.37679524  0.04923084    -0.78200
C75         C  0.32224871  0.35379478  0.05369869     1.02400
O76         O  0.29489911  0.33673704  0.14911760    -0.85600
O77         O  0.32498583  0.41071382  0.17370381    -0.82600
C78         C  0.30722408  0.43991236  0.18579559     0.97900
O79         O  0.28604151  0.45614417  0.16826646    -0.82600
O80         O  0.24512154  0.46778912  0.11839585    -0.85300
C81         C  0.22584646  0.43841735  0.12225760     1.02400
O82         O  0.23362939  0.39965218  0.11747526    -0.78100
O83         O  0.27062888  0.32825861  0.10150415    -0.78200
C84         C  0.27619144  0.31612397  0.13131467     1.02400
Cr85       Cr  0.32447310  0.37880688  0.12826033     1.93700
Cr86       Cr  0.29071664  0.46656694  0.11983831     1.93200
Cr87       Cr  0.26710625  0.38778621  0.08428925     1.39100
O88         O  0.29444598  0.41104740  0.11103555    -1.23300
O89         O  0.42602471  0.83895271  0.06331837    -0.85600
O90         O  0.43757497  0.91782449  0.03461492    -0.82600
C91         C  0.44119821  0.95759355  0.03263124     0.97900
O92         O  0.43883511  0.97984254  0.05893974    -0.82600
O93         O  0.38322432  0.97117540  0.09023140    -0.85300
C94         C  0.36237589  0.95639607  0.10880986     1.02400
O95         O  0.36829295  0.92585437  0.12925686    -0.78000
O96         O  0.38317520  0.85871140  0.08719252    -0.78200
C97         C  0.39724338  0.84254490  0.06185015     1.02400
O98         O  0.47442001  0.85249050  0.11108436    -0.85600
O99         O  0.98745232  0.92424846  0.08523249    -0.82600
C100        C  0.99166576  0.95551548  0.10451738     0.97900
O101        O  0.96949294  0.97139761  0.12160097    -0.82600
O102        O  0.41349723  0.97348011  0.15352066    -0.85300
C103        C  0.41832885  0.94840477  0.17800398     1.02400
O104        O  0.41978169  0.90797184  0.17309401    -0.78100
O105        O  0.43234796  0.83084842  0.13548946    -0.78200
C106        C  0.46111095  0.82633579  0.13026705     1.02400
Cr107      Cr  0.45390777  0.88660347  0.07489853     1.93700
Cr108      Cr  0.42617325  0.96916038  0.10567038     1.93200
Cr109      Cr  0.40297780  0.88229059  0.12949263     1.39100
O110        O  0.42806219  0.91254098  0.10373673    -1.23300
O111        O  0.04838242  0.61064264  0.05420190    -0.85600
O112        O  0.01349732  0.54163625  0.05693234    -0.82600
C113        C  0.03323639  0.51273028  0.05050507     0.97900
O114        O  0.05196587  0.49995684  0.07279162    -0.82600
O115        O  0.08470477  0.50039482  0.13265448    -0.85300
C116        C  0.10813959  0.52131235  0.12581190     1.02400
O117        O  0.10587394  0.56022301  0.11782322    -0.78000
O118        O  0.08168018  0.63425217  0.09086777    -0.78200
C119        C  0.07309126  0.62932788  0.06000512     1.02400
O120        O  0.51543138  0.65153609  0.10597703    -0.85600
O121        O  0.48111172  0.57813922  0.11412807    -0.82600
C122        C  0.47475901  0.53899726  0.11655767     0.97900
O123        O  0.49577496  0.51076192  0.11432819    -0.82600
O124        O  0.03099304  0.51963275  0.16881068    -0.85300
C125        C  0.05065361  0.53416674  0.18875367     1.02400
O126        O  0.06890292  0.56349245  0.17874091    -0.78100
O127        O  0.04183719  0.64178692  0.15316795    -0.78200
C128        C  0.02104105  0.66181605  0.13675895     1.02400
Cr129      Cr  0.01621052  0.59228055  0.08584036     1.93700
Cr130      Cr  0.04124185  0.51163040  0.12083256     1.93200
Cr131      Cr  0.07194569  0.59818066  0.13384719     1.39100
O132        O  0.04316908  0.56789775  0.11394020    -1.23300
O133        O  0.42558820  0.14399437  0.42497458    -0.85600
O134        O  0.44324282  0.06375629  0.44512657    -0.82600
C135        C  0.45299293  0.02573477  0.44419511     0.97900
O136        O  0.45186045  0.00540447  0.41698675    -0.82600
O137        O  0.39276504  0.01149397  0.38865152    -0.85300
C138        C  0.37047582  0.02607493  0.37116553     1.02400
O139        O  0.37377221  0.06006274  0.35395538    -0.78000
O140        O  0.38397043  0.12471665  0.39935227    -0.78200
C141        C  0.39679524  0.13988619  0.42536777     1.02400
O142        O  0.47347992  0.14060478  0.37391434    -0.85600
O143        O  0.99351033  0.05963692  0.39535768    -0.82600
C144        C  0.99931458  0.03605730  0.36998648     0.97900
O145        O  0.97768401  0.02324426  0.35146398    -0.82600
O146        O  0.42057448  0.01997018  0.32509912    -0.85300
C147        C  0.42079748  0.04750752  0.30181433     1.02400
O148        O  0.42128397  0.08738282  0.30910472    -0.78100
O149        O  0.42955845  0.16196847  0.35250980    -0.78200
C150        C  0.45774817  0.16868036  0.35856573     1.02400
Cr151      Cr  0.45677186  0.10110136  0.40781283     1.93700
Cr152      Cr  0.43528257  0.02015095  0.37198395     1.93200
Cr153      Cr  0.40451749  0.10702087  0.35530371     1.39100
O154        O  0.43245568  0.07638382  0.37795899    -1.23300
O155        O  0.05809269  0.34417572  0.43622184    -0.85600
O156        O  0.04814372  0.42748081  0.45419088    -0.82600
C157        C  0.04105994  0.46652041  0.45278094     0.97900
O158        O  0.04477905  0.48678829  0.42553650    -0.82600
O159        O  0.10347784  0.46893864  0.39899514    -0.85300
C160        C  0.12479486  0.44958480  0.38309595     1.02400
O161        O  0.11915991  0.41710001  0.36515125    -0.78000
O162        O  0.10219319  0.35643318  0.41253063    -0.78200
C163        C  0.08692389  0.34401535  0.43824037     1.02400
O164        O  0.51367940  0.35374419  0.38121105    -0.85600
O165        O  0.50023134  0.43324153  0.40489435    -0.82600
C166        C  0.49630191  0.45883376  0.38025962     0.97900
O167        O  0.51862637  0.46993992  0.36179333    -0.82600
O168        O  0.07707077  0.46320583  0.33399691    -0.85300
C169        C  0.07018745  0.43566328  0.31236975     1.02400
O170        O  0.06809855  0.39645613  0.32129491    -0.78100
O171        O  0.05474843  0.32610924  0.36562252    -0.78200
C172        C  0.02587379  0.32412256  0.36976043     1.02400
Cr173      Cr  0.03158220  0.39183903  0.41786273     1.93700
Cr174      Cr  0.06120362  0.46783746  0.38100984     1.93200
Cr175      Cr  0.08416846  0.37600444  0.36742037     1.39100
O176        O  0.05867730  0.41170850  0.38844817    -1.23300
O177        O  0.30342449  0.12059367  0.54751583    -0.85600
O178        O  0.26001050  0.06126364  0.55116063    -0.82600
C179        C  0.27496210  0.02850945  0.54268198     0.97900
O180        O  0.29642009  0.01377189  0.56093558    -0.82600
O181        O  0.33753416  0.00742776  0.61546152    -0.85300
C182        C  0.36132973  0.02968729  0.61358440     1.02400
O183        O  0.35923784  0.06962026  0.61125048    -0.78000
O184        O  0.33642048  0.14370855  0.58492646    -0.78200
C185        C  0.32864641  0.13775164  0.55380482     1.02400
O186        O  0.27437336  0.16571901  0.60099395    -0.85600
O187        O  0.23531955  0.09547275  0.61041116    -0.82600
C188        C  0.22759813  0.05663793  0.61310069     0.97900
O189        O  0.24703121  0.02634805  0.60866123    -0.82600
O190        O  0.28781857  0.02480269  0.66024588    -0.85300
C191        C  0.30624937  0.04079433  0.68078739     1.02400
O192        O  0.32326856  0.07176961  0.67182039    -0.78100
O193        O  0.29652665  0.14998213  0.64886319    -0.78200
C194        C  0.27918706  0.17430231  0.63149877     1.02400
Cr195      Cr  0.27063744  0.10867529  0.58016412     1.93700
Cr196      Cr  0.29276475  0.02299053  0.61075927     1.93200
Cr197      Cr  0.32612889  0.10725197  0.62775414     1.39100
O198        O  0.29673790  0.07944066  0.60669957    -1.23300
O199        O  0.18091797  0.34456384  0.56923467    -0.85600
O200        O  0.19196016  0.42218902  0.54092220    -0.82600
C201        C  0.19840672  0.46077829  0.53721081     0.97900
O202        O  0.19692708  0.48562070  0.56211620    -0.82600
O203        O  0.13926919  0.47880050  0.59098159    -0.85300
C204        C  0.11764362  0.46506400  0.60900748     1.02400
O205        O  0.12261544  0.43571990  0.63074501    -0.78000
O206        O  0.13741016  0.36703622  0.59014265    -0.78200
C207        C  0.15221932  0.34849509  0.56637447     1.02400
O208        O  0.22757333  0.35961516  0.61900699    -0.85600
O209        O  0.24194595  0.43485333  0.58676775    -0.82600
C210        C  0.24604683  0.46468014  0.60785777     0.97900
O211        O  0.22401664  0.47819687  0.62607956    -0.82600
O212        O  0.16647778  0.48202721  0.65610360    -0.85300
C213        C  0.16958915  0.45726018  0.68128309     1.02400
O214        O  0.17174912  0.41682556  0.67665089    -0.78100
O215        O  0.18389891  0.33861857  0.63983209    -0.78200
C216        C  0.21252430  0.33235169  0.63541173     1.02400
Cr217      Cr  0.20867246  0.39236095  0.58116616     1.93700
Cr218      Cr  0.18147961  0.47657466  0.60877924     1.93200
Cr219      Cr  0.15603418  0.39097000  0.63286166     1.39100
O220        O  0.18253796  0.41984007  0.60821911    -1.23300
O221        O  0.30408806  0.84937623  0.92931395    -0.85600
O222        O  0.29131119  0.93215726  0.94559376    -0.82600
C223        C  0.28301766  0.97064040  0.94402146     0.97900
O224        O  0.28620328  0.99092038  0.91674840    -0.82600
O225        O  0.34669199  0.97490551  0.89444693    -0.85300
C226        C  0.36954916  0.95671570  0.88040080     1.02400
O227        O  0.36554095  0.92500218  0.86097915    -0.78000
O228        O  0.34863576  0.86254413  0.90688920    -0.78200
C229        C  0.33287061  0.84959687  0.93211562     1.02400
O230        O  0.25992519  0.85612779  0.87537367    -0.85600
O231        O  0.24418165  0.93663438  0.89447285    -0.82600
C232        C  0.24113334  0.96106679  0.86890846     0.97900
O233        O  0.26431007  0.97332777  0.85226390    -0.82600
O234        O  0.32430887  0.96919391  0.82782298    -0.85300
C235        C  0.31900040  0.94194522  0.80544923     1.02400
O236        O  0.31730522  0.90242847  0.81384723    -0.78100
O237        O  0.30397048  0.83037685  0.85759974    -0.78200
C238        C  0.27526346  0.82615916  0.86197608     1.02400
Cr239      Cr  0.27703113  0.89520629  0.90901225     1.93700
Cr240      Cr  0.30563893  0.97249653  0.87350792     1.93200
Cr241      Cr  0.33179216  0.88199802  0.86088569     1.39100
O242        O  0.30443718  0.91619913  0.88066424    -1.23300
O243        O  0.16928825  0.65088073  0.93068977    -0.85600
O244        O  0.18345677  0.57163725  0.95418991    -0.82600
C245        C  0.19308891  0.53369595  0.95519011     0.97900
O246        O  0.19499757  0.51271064  0.92819384    -0.82600
O247        O  0.13840178  0.51742299  0.89653111    -0.85300
C248        C  0.11647375  0.53200335  0.87880952     1.02400
O249        O  0.12031150  0.56419602  0.85962743    -0.78000
O250        O  0.12907860  0.62878611  0.90456190    -0.78200
C251        C  0.14083427  0.64426218  0.93105261     1.02400
O252        O  0.22007086  0.64320417  0.88353005    -0.85600
O253        O  0.23728565  0.56717903  0.91093610    -0.82600
C254        C  0.24478073  0.54201050  0.88700653     0.97900
O255        O  0.22462726  0.52835172  0.86695092    -0.82600
O256        O  0.16885271  0.52249606  0.83371324    -0.85300
C257        C  0.17038555  0.54948220  0.80999815     1.02400
O258        O  0.16968438  0.58951078  0.81676401    -0.78100
O259        O  0.17746504  0.66419342  0.85872918    -0.78200
C260        C  0.20562365  0.67014858  0.86562223     1.02400
Cr261      Cr  0.20069529  0.60637487  0.91731270     1.93700
Cr262      Cr  0.18122059  0.52469159  0.88171358     1.93200
Cr263      Cr  0.15130436  0.61055058  0.86158627     1.39100
O264        O  0.17821151  0.58083024  0.88614080    -1.23300
O265        O  0.10240494  0.86649364  0.58987565    -0.85600
O266        O  0.11034754  0.93490858  0.63245021    -0.82600
C267        C  0.11396244  0.96750513  0.61371225     0.97900
O268        O  0.09270433  0.97921877  0.59371446    -0.82600
O269        O  0.03597851  0.98014311  0.56157108    -0.85300
C270        C  0.03846273  0.95662619  0.53597772     1.02400
O271        O  0.04671946  0.91826317  0.53913663    -0.78000
O272        O  0.06156132  0.84151474  0.56653235    -0.78200
C273        C  0.09000293  0.84827368  0.56489128     1.02400
O274        O  0.05513729  0.83237357  0.63692131    -0.85600
O275        O  0.06118895  0.91106660  0.67599651    -0.82600
C276        C  0.06044912  0.95160379  0.68093634     0.97900
O277        O  0.06202459  0.97662688  0.65599088    -0.82600
O278        O  0.50460159  0.97041478  0.62845090    -0.85300
C279        C  0.48460836  0.95593681  0.60857226     1.02400
O280        O  0.49282699  0.93134992  0.58471171    -0.78100
O281        O  0.51056852  0.85692547  0.61571110    -0.78200
C282        C  0.02693864  0.82520723  0.63097368     1.02400
Cr283      Cr  0.08018971  0.88725356  0.63220666     1.93700
Cr284      Cr  0.04976756  0.97138480  0.60856948     1.93200
Cr285      Cr  0.02994841  0.88670252  0.57791231     1.39100
O286        O  0.05301809  0.91494391  0.60674484    -1.23300
O287        O  0.38398060  0.63360167  0.58544942    -0.85600
O288        O  0.37173131  0.56736602  0.62844344    -0.82600
C289        C  0.36734207  0.53811015  0.60691743     0.97900
O290        O  0.38955499  0.52420781  0.58933945    -0.82600
O291        O  0.44809194  0.51458443  0.56211668    -0.85300
C292        C  0.45080537  0.53754122  0.53614827     1.02400
O293        O  0.44328267  0.57645781  0.53706270    -0.78000
O294        O  0.42641771  0.65445043  0.56204278    -0.78200
C295        C  0.39779511  0.64902720  0.55995212     1.02400
O296        O  0.42986112  0.66575194  0.63368446    -0.85600
O297        O  0.42091097  0.58849645  0.67342571    -0.82600
C298        C  0.41990183  0.54824481  0.67950124     0.97900
O299        O  0.41624119  0.52294221  0.65514072    -0.82600
O300        O  0.97254063  0.52110786  0.62391364    -0.85300
C301        C  0.99426064  0.53472589  0.60583916     1.02400
O302        O  0.98959277  0.56359574  0.58355218    -0.78100
O303        O  0.47393948  0.64407952  0.61306244    -0.78200
C304        C  0.45833958  0.67168792  0.62893140     1.02400
Cr305      Cr  0.40383814  0.61248298  0.62881570     1.93700
Cr306      Cr  0.43152055  0.52629073  0.60777841     1.93200
Cr307      Cr  0.45673591  0.60896482  0.57677810     1.39100
O308        O  0.43119312  0.58277427  0.60486809    -1.23300
O309        O  0.09702414  0.12629946  0.90201048    -0.85600
O310        O  0.10986201  0.06559037  0.85189375    -0.82600
C311        C  0.11988985  0.03615554  0.87107682     0.97900
O312        O  0.10172490  0.01823631  0.89159543    -0.82600
O313        O  0.04836988  0.99757094  0.92674417    -0.85300
C314        C  0.04269918  0.01871114  0.95295496     1.02400
O315        O  0.04775311  0.05803994  0.95282626    -0.78000
O316        O  0.05540142  0.14005966  0.93097801    -0.78200
C317        C  0.08438995  0.13894065  0.92951731     1.02400
O318        O  0.04444900  0.15704702  0.86078021    -0.85600
O319        O  0.05463373  0.08414809  0.81656457    -0.82600
C320        C  0.05793448  0.04444291  0.80900280     0.97900
O321        O  0.06659442  0.01796278  0.83131105    -0.82600
O322        O  0.51623679  0.00910912  0.87537338    -0.85300
C323        C  0.49281318  0.02426124  0.89068176     1.02400
O324        O  0.49511370  0.05530688  0.91100261    -0.78100
O325        O  0.50539339  0.13401584  0.88643943    -0.78200
C326        C  0.01608875  0.15944424  0.86821686     1.02400
Cr327      Cr  0.07460408  0.10644970  0.85969700     1.93700
Cr328      Cr  0.05751890  0.01551301  0.88012016     1.93200
Cr329      Cr  0.02786172  0.09286838  0.91713597     1.39100
O330        O  0.05261420  0.07167278  0.88524733    -1.23300
O331        O  0.38348218  0.37246698  0.90566307    -0.85600
O332        O  0.37184682  0.44090692  0.86362376    -0.82600
C333        C  0.36832696  0.47124986  0.88462132     0.97900
O334        O  0.39090208  0.48436905  0.90135263    -0.82600
O335        O  0.45113117  0.48872175  0.92616126    -0.85300
C336        C  0.45489460  0.46533634  0.95164883     1.02400
O337        O  0.44350638  0.42893733  0.95154921    -0.78000
O338        O  0.42563079  0.35074600  0.93057632    -0.78200
C339        C  0.39678158  0.35540374  0.93122170     1.02400
O340        O  0.42817622  0.33748892  0.85667692    -0.85600
O341        O  0.41950644  0.41601978  0.81666991    -0.82600
C342        C  0.41836505  0.45638596  0.81065592     0.97900
O343        O  0.41594838  0.48166546  0.83528719    -0.82600
O344        O  0.97542456  0.46822350  0.85702979    -0.85300
C345        C  0.99764177  0.45233859  0.87391957     1.02400
O346        O  0.99303914  0.42393538  0.89640844    -0.78100
O347        O  0.47241071  0.35425557  0.87808617    -0.78200
C348        C  0.45636647  0.32858477  0.86203023     1.02400
Cr349      Cr  0.40311617  0.39310005  0.86203600     1.93700
Cr350      Cr  0.43260766  0.47739322  0.88169574     1.93200
Cr351      Cr  0.45629097  0.39283242  0.91326089     1.39100
O352        O  0.43112827  0.42070601  0.88517178    -1.23300
C353        C  0.45329868  0.24930409  0.86222988    -0.06000
C354        C  0.47029289  0.28556980  0.85406646    -0.00100
C355        C  0.99740436  0.27477461  0.84122741    -0.08600
C356        C  0.01220982  0.23459473  0.84582143    -0.06000
C357        C  0.99701590  0.19898975  0.85944899    -0.00100
C358        C  0.46710161  0.20805230  0.86524896    -0.08500
C359        C  0.44678066  0.17088695  0.87495137     0.61800
H360        H  0.42934563  0.25404632  0.86887827     0.12500
H361        H  0.03636633  0.23157723  0.83948690     0.12500
C362        C  0.01601991  0.31065256  0.82596899     0.62100
F363        F  0.41592041  0.18197181  0.87274005    -0.23100
F364        F  0.45255977  0.15821362  0.90809854    -0.20400
F365        F  0.45217338  0.13690553  0.85319252    -0.20100
F366        F  0.03645613  0.32501984  0.84990941    -0.20200
F367        F  0.99774314  0.34468504  0.81496349    -0.20500
F368        F  0.03234445  0.29560997  0.79811416    -0.23200
C369        C  0.43291945  0.48464070  0.71614108    -0.06000
C370        C  0.42170091  0.52760457  0.71425725    -0.00100
C371        C  0.40924308  0.54610022  0.74405072    -0.08600
C372        C  0.40780442  0.52086343  0.77397921    -0.06000
C373        C  0.41874537  0.47768264  0.77593276    -0.00100
C374        C  0.43170658  0.45943689  0.74621675    -0.08500
C375        C  0.95018378  0.41414563  0.74723960     0.61800
H376        H  0.44247672  0.47043623  0.69333137     0.12500
H377        H  0.39779050  0.53524283  0.79647671     0.12500
C378        C  0.39685146  0.59189787  0.74423891     0.62100
F379        F  0.96693811  0.40668422  0.71783639    -0.23100
F380        F  0.92938668  0.38163782  0.75094975    -0.20400
F381        F  0.97022977  0.41295934  0.77431990    -0.20100
F382        F  0.37373200  0.59669891  0.72045290    -0.20200
F383        F  0.42024545  0.61960414  0.73656719    -0.20500
F384        F  0.38488028  0.60334959  0.77560215    -0.23200
C385        C  0.06967031  0.01642635  0.71585517    -0.06000
C386        C  0.05888609  0.97376616  0.71478213    -0.00100
C387        C  0.04460706  0.95718814  0.74411288    -0.08600
C388        C  0.04268852  0.98311051  0.77341567    -0.06000
C389        C  0.05393032  0.02536520  0.77454221    -0.00100
C390        C  0.06709882  0.04255885  0.74489232    -0.08500
C391        C  0.07926391  0.08770561  0.74422211     0.61800
H392        H  0.08059643  0.02953371  0.69347799     0.12500
H393        H  0.57930886  0.96268724  0.80254904     0.12500
C394        C  0.57897510  0.90598574  0.75145057     0.62100
F395        F  0.09121763  0.09845809  0.71274556    -0.23100
F396        F  0.10226802  0.09146311  0.76806223    -0.20400
F397        F  0.05566809  0.11652748  0.75155964    -0.20100
F398        F  0.60257207  0.90111541  0.72817278    -0.20200
F399        F  0.55564348  0.87856136  0.74339835    -0.20500
F400        F  0.59022523  0.89401495  0.78304663    -0.23200
C401        C  0.00825590  0.70598271  0.63750624    -0.06000
C402        C  0.47401723  0.71222597  0.63901630    -0.00100
C403        C  0.45908643  0.75309906  0.63911618    -0.08600
C404        C  0.47704528  0.79008859  0.64117321    -0.06000
C405        C  0.01154714  0.78390286  0.64031117    -0.00100
C406        C  0.02637051  0.74307727  0.63822349    -0.08500
C407        C  0.06101228  0.73839486  0.63509747     0.61800
H408        H  0.01951106  0.67505339  0.63422384     0.12500
H409        H  0.46575383  0.82125542  0.64041960     0.12500
C410        C  0.42460776  0.75834901  0.63458110     0.62100
F411        F  0.07064119  0.69590150  0.63370549    -0.23100
F412        F  0.07465828  0.75658943  0.66302961    -0.20400
F413        F  0.07098551  0.75844205  0.60577490    -0.20100
F414        F  0.40959348  0.73796992  0.66090432    -0.20200
F415        F  0.41601930  0.74101368  0.60387698    -0.20500
F416        F  0.41512006  0.80094598  0.63457516    -0.23200
C417        C  0.29344327  0.52234655  0.91587949    -0.06000
C418        C  0.27710722  0.52622960  0.88510515    -0.00100
C419        C  0.29199692  0.51511368  0.85424918    -0.08600
C420        C  0.32212002  0.49851142  0.85556860    -0.06000
C421        C  0.33794704  0.49308188  0.88637370    -0.00100
C422        C  0.32378122  0.50612580  0.91710224    -0.08500
C423        C  0.34011662  0.50185834  0.95102133     0.61800
H424        H  0.28195931  0.53130347  0.93930586     0.12500
H425        H  0.33353952  0.48887821  0.83225263     0.12500
C426        C  0.27639407  0.52004853  0.82003303     0.62100
F427        F  0.32128824  0.51369672  0.97790616    -0.23100
F428        F  0.36526288  0.52807752  0.95129080    -0.20400
F429        F  0.34968195  0.45981151  0.95622991    -0.20100
F430        F  0.26318452  0.56055184  0.81687159    -0.20200
F431        F  0.25417341  0.48953146  0.81728227    -0.20500
F432        F  0.29680070  0.51441733  0.79330522    -0.23200
C433        C  0.06927549  0.51354776  0.84796647    -0.06000
C434        C  0.08664747  0.51002734  0.87801292    -0.00100
C435        C  0.07518695  0.48591047  0.90568364    -0.08600
C436        C  0.04663713  0.46669463  0.90217798    -0.06000
C437        C  0.02884765  0.47078036  0.87239312    -0.00100
C438        C  0.04053678  0.49440204  0.84453947    -0.08500
C439        C  0.02349363  0.49874383  0.81109265     0.61800
H440        H  0.07849453  0.53158606  0.82685415     0.12500
H441        H  0.03762232  0.44896663  0.92355070     0.12500
C442        C  0.09227921  0.48109127  0.93919048     0.62100
F443        F  0.04111178  0.51790613  0.78616100    -0.23100
F444        F  0.99716433  0.52362082  0.81532507    -0.20400
F445        F  0.01591971  0.45861488  0.79969722    -0.20100
F446        F  0.09916421  0.52104095  0.95172161    -0.20200
F447        F  0.11896485  0.45721807  0.93438100    -0.20500
F448        F  0.07521337  0.46016408  0.96361484    -0.23200
C449        C  0.44015923  0.01431835  0.91276525    -0.06000
C450        C  0.46180967  0.00529914  0.88690724    -0.00100
C451        C  0.45284924  0.97983072  0.85905286    -0.08600
C452        C  0.42273574  0.96427829  0.85853872    -0.06000
C453        C  0.40106203  0.97380686  0.88423869    -0.00100
C454        C  0.41004140  0.99926546  0.91207064    -0.08500
C455        C  0.38836287  0.01056404  0.94123622     0.61800
H456        H  0.44700704  0.03365372  0.93401577     0.12500
H457        H  0.41574397  0.94477257  0.83745887     0.12500
C458        C  0.47430751  0.96981582  0.82946476     0.62100
F459        F  0.40306472  0.03131870  0.96729496    -0.23100
F460        F  0.37599353  0.97369437  0.95470493    -0.20400
F461        F  0.36513483  0.03770233  0.92968367    -0.20100
F462        F  0.49858948  0.94416800  0.84046542    -0.20200
F463        F  0.48526498  0.00746134  0.81581594    -0.20500
F464        F  0.45969443  0.94829119  0.80370790    -0.23200
C465        C  0.15529228  0.97454422  0.87111366    -0.06000
C466        C  0.15165598  0.01897842  0.86675691    -0.00100
C467        C  0.17757760  0.04318357  0.85611867    -0.08600
C468        C  0.20643800  0.02210968  0.85425213    -0.06000
C469        C  0.21005993  0.97850150  0.86178402    -0.00100
C470        C  0.18377877  0.95371854  0.86743432    -0.08500
C471        C  0.18538988  0.90524323  0.86677755     0.61800
H472        H  0.13533840  0.95565637  0.87680811     0.12500
H473        H  0.22667543  0.04022988  0.84814768     0.12500
C474        C  0.17685057  0.09009255  0.84523571     0.62100
F475        F  0.15678435  0.88811031  0.86152888    -0.23100
F476        F  0.19670281  0.88913983  0.89713608    -0.20400
F477        F  0.20420488  0.89236299  0.84022808    -0.20100
F478        F  0.20285268  0.11020034  0.85659725    -0.20200
F479        F  0.15216717  0.11322228  0.85764393    -0.20500
F480        F  0.17640354  0.09220572  0.81013736    -0.23200
C481        C  0.22663096  0.78739841  0.85130202    -0.06000
C482        C  0.25889843  0.78520394  0.85430882    -0.00100
C483        C  0.27335297  0.74396782  0.85504092    -0.08600
C484        C  0.25484577  0.70731801  0.85508423    -0.06000
C485        C  0.22245316  0.70989195  0.85560228    -0.00100
C486        C  0.20810196  0.75083681  0.85221109    -0.08500
C487        C  0.17341219  0.75648853  0.85156131     0.61800
H488        H  0.21561281  0.81858513  0.85024208     0.12500
H489        H  0.26572929  0.67589421  0.85681430     0.12500
C490        C  0.30793765  0.73813336  0.85799304     0.62100
F491        F  0.16434548  0.79898595  0.84792071    -0.23100
F492        F  0.16097340  0.74139271  0.88161189    -0.20400
F493        F  0.16162742  0.73428681  0.82444295    -0.20100
F494        F  0.31796438  0.75646030  0.88776088    -0.20200
F495        F  0.32209467  0.75712418  0.83042728    -0.20500
F496        F  0.31695088  0.69535750  0.85861066    -0.23200
C497        C  0.30145516  0.46117344  0.59443069    -0.06000
C498        C  0.27674750  0.48463863  0.60876716    -0.00100
C499        C  0.28160788  0.52723272  0.61963700    -0.08600
C500        C  0.31151744  0.54310020  0.61818078    -0.06000
C501        C  0.33633904  0.51925711  0.60451151    -0.00100
C502        C  0.33092128  0.47803090  0.59100909    -0.08500
C503        C  0.35559782  0.45166610  0.57273585     0.61800
H504        H  0.29740013  0.42920331  0.58528533     0.12500
H505        H  0.31567032  0.57494186  0.62755419     0.12500
C506        C  0.25555323  0.55680752  0.63142712     0.62100
F507        F  0.34481626  0.41295389  0.56137881    -0.23100
F508        F  0.37986012  0.44278562  0.59438331    -0.20400
F509        F  0.36575472  0.47410279  0.54459466    -0.20100
F510        F  0.24319113  0.54152791  0.66143455    -0.20200
F511        F  0.23308392  0.55938820  0.60670158    -0.20500
F512        F  0.26533220  0.59799562  0.63726575    -0.23200
C513        C  0.05003801  0.54349847  0.60280899    -0.06000
C514        C  0.02550519  0.51604401  0.60883641    -0.00100
C515        C  0.03136907  0.47158254  0.61371308    -0.08600
C516        C  0.06187559  0.45646241  0.61258298    -0.06000
C517        C  0.08640291  0.48391715  0.60654971    -0.00100
C518        C  0.08053609  0.52834967  0.60160366    -0.08500
C519        C  0.10606956  0.55998854  0.59579016     0.61800
H520        H  0.04501244  0.57726597  0.59882479     0.12500
H521        H  0.06689881  0.42267137  0.61641795     0.12500
C522        C  0.00582674  0.43982410  0.61912849     0.62100
F523        F  0.09511995  0.60192797  0.59492046    -0.23100
F524        F  0.12032123  0.55171456  0.56502434    -0.20400
F525        F  0.12730117  0.55657350  0.62175707    -0.20100
F526        F  0.98500206  0.44304663  0.59275766    -0.20200
F527        F  0.99107498  0.44808807  0.64960577    -0.20500
F528        F  0.01685492  0.39792966  0.62028373    -0.23200
C529        C  0.19025512  0.49261055  0.77140428    -0.06000
C530        C  0.17216682  0.53048600  0.77507655    -0.00100
C531        C  0.15209314  0.54235326  0.74836442    -0.08600
C532        C  0.15130777  0.51643497  0.71900830    -0.06000
C533        C  0.16955644  0.47863006  0.71536130    -0.00100
C534        C  0.18967157  0.46682386  0.74203223    -0.08500
C535        C  0.21087301  0.42780000  0.73933130     0.61800
H536        H  0.20433875  0.48241474  0.79254190     0.12500
H537        H  0.13604265  0.52555579  0.69843414     0.12500
C538        C  0.13058208  0.58093542  0.75147052     0.62100
F539        F  0.23005144  0.42361861  0.76716791    -0.23100
F540        F  0.22905742  0.43115776  0.71058942    -0.20400
F541        F  0.19370407  0.39120247  0.73735933    -0.20100
F542        F  0.14742855  0.61750972  0.75562516    -0.20200
F543        F  0.11142458  0.57574261  0.77921052    -0.20500
F544        F  0.11245017  0.58652933  0.72290831    -0.23200
C545        C  0.39748239  0.97080725  0.59699523    -0.06000
C546        C  0.39234774  0.00917192  0.61460053    -0.00100
C547        C  0.41684351  0.02714005  0.63306884    -0.08600
C548        C  0.44610714  0.00782291  0.63087958    -0.06000
C549        C  0.45192982  0.97090672  0.61155604    -0.00100
C550        C  0.42683788  0.95101574  0.59514493    -0.08500
C551        C  0.43044204  0.90921133  0.57579920     0.61800
H552        H  0.37835194  0.95708801  0.58375003     0.12500
H553        H  0.46504258  0.02257880  0.64370260     0.12500
C554        C  0.41247775  0.06618044  0.65566814     0.62100
F555        F  0.40238548  0.89284864  0.56672248    -0.23100
F556        F  0.44527953  0.87881420  0.59585711    -0.20400
F557        F  0.44704106  0.91575627  0.54630465    -0.20100
F558        F  0.38725850  0.06110630  0.67654980    -0.20200
F559        F  0.40845434  0.10261567  0.63595039    -0.20500
F560        F  0.43759235  0.07222839  0.67640446    -0.23200
C561        C  0.14544975  0.02933671  0.59529830    -0.06000
C562        C  0.14207553  0.99381696  0.61723422    -0.00100
C563        C  0.16484917  0.98598307  0.64270631    -0.08600
C564        C  0.19126143  0.01087952  0.64238492    -0.06000
C565        C  0.19558896  0.04378490  0.61870055    -0.00100
C566        C  0.17178707  0.05471660  0.59574555    -0.08500
C567        C  0.17475479  0.09169372  0.57085138     0.61800
H568        H  0.12765159  0.03646545  0.57688613     0.12500
H569        H  0.20991308  0.00315643  0.65957917     0.12500
C570        C  0.16228804  0.95150401  0.67009588     0.62100
F571        F  0.14846949  0.09793853  0.55166502    -0.23100
F572        F  0.19891394  0.08373500  0.54882414    -0.20400
F573        F  0.17991197  0.12901541  0.58847359    -0.20100
F574        F  0.16269949  0.91139214  0.65538037    -0.20200
F575        F  0.13549353  0.95779982  0.68850632    -0.20500
F576        F  0.18633426  0.95232290  0.69297341    -0.23200
C577        C  0.33578416  0.99120185  0.71866756    -0.06000
C578        C  0.30980105  0.01818635  0.71419322    -0.00100
C579        C  0.28554340  0.01582904  0.73817539    -0.08600
C580        C  0.28819689  0.98662864  0.76571674    -0.06000
C581        C  0.31433595  0.95993965  0.77051333    -0.00100
C582        C  0.33869413  0.96275536  0.74674890    -0.08500
C583        C  0.36797757  0.93660618  0.75178372     0.61800
H584        H  0.35380526  0.99231718  0.69968199     0.12500
H585        H  0.27032484  0.98591605  0.78485830     0.12500
C586        C  0.25774450  0.04583042  0.73569827     0.62100
F587        F  0.38835276  0.94190095  0.72509751    -0.23100
F588        F  0.36115135  0.89366271  0.75418194    -0.20400
F589        F  0.38215430  0.94910646  0.78135844    -0.20100
F590        F  0.24217003  0.03902062  0.70580406    -0.20200
F591        F  0.26724513  0.08778017  0.73634893    -0.20500
F592        F  0.23744150  0.03995103  0.76238973    -0.23200
C593        C  0.26088077  0.29096298  0.64812380    -0.06000
C594        C  0.22854643  0.29116682  0.64579596    -0.00100
C595        C  0.21346627  0.25115638  0.64773436    -0.08600
C596        C  0.23139791  0.21295623  0.64702398    -0.06000
C597        C  0.26353464  0.21320049  0.64526135    -0.00100
C598        C  0.27861287  0.25255643  0.64785917    -0.08500
C599        C  0.31333396  0.25376548  0.64831338     0.61800
H600        H  0.27239247  0.32133794  0.64786250     0.12500
H601        H  0.22033924  0.18232825  0.64520080     0.12500
C602        C  0.17873548  0.24802959  0.64841310     0.62100
F603        F  0.32372335  0.29491409  0.65276580    -0.23100
F604        F  0.32507055  0.23825204  0.61799204    -0.20400
F605        F  0.32434407  0.22856404  0.67479813    -0.20100
F606        F  0.16650558  0.26372902  0.61832667    -0.20200
F607        F  0.16694698  0.27119270  0.67549919    -0.20500
F608        F  0.16943735  0.20615951  0.65230112    -0.23200
C609        C  0.49478909  0.45959800  0.48252708    -0.06000
C610        C  0.01871745  0.48450700  0.47678618    -0.00100
C611        C  0.52413319  0.52471098  0.48871841    -0.08600
C612        C  0.49847599  0.54375581  0.50456273    -0.06000
C613        C  0.47131617  0.52110560  0.50971337    -0.00100
C614        C  0.46917349  0.47863210  0.49814662    -0.08500
C615        C  0.43999573  0.45345898  0.50220511     0.61800
H616        H  0.99123009  0.42811140  0.47248065     0.12500
H617        H  0.50006578  0.57572684  0.51482720     0.12500
C618        C  0.04850433  0.55336363  0.48469601     0.62100
F619        F  0.43930039  0.41958842  0.47970610    -0.23100
F620        F  0.41466874  0.47966912  0.49579690    -0.20400
F621        F  0.94141315  0.41875528  0.51962359    -0.20100
F622        F  0.56037222  0.55797813  0.45217559    -0.20200
F623        F  0.07260847  0.53017131  0.49904360    -0.20500
F624        F  0.55262396  0.58700439  0.50339920    -0.23200
C625        C  0.13462509  0.32701159  0.47209222    -0.06000
C626        C  0.10254889  0.33240051  0.47159590    -0.00100
C627        C  0.08689319  0.33072131  0.50359301    -0.08600
C628        C  0.10398479  0.33436260  0.53395617    -0.01200
C629        C  0.13621635  0.33464359  0.53418343    -0.00100
C630        C  0.15167101  0.32590903  0.50273695    -0.08500
C631        C  0.18578278  0.31501342  0.50075093     0.61800
H632        H  0.14651261  0.32450168  0.44797957     0.12500
H633        H  0.09199774  0.33789847  0.55794683     0.12500
C634        C  0.05249752  0.32447146  0.50652868     0.62100
F635        F  0.19429255  0.30059322  0.46880097    -0.23100
F636        F  0.19300835  0.28274113  0.52378719    -0.20400
F637        F  0.20281908  0.35056934  0.50759698    -0.20100
F638        F  0.04401516  0.29058975  0.48638411    -0.20200
F639        F  0.03667251  0.36121947  0.49673620    -0.20500
F640        F  0.04381619  0.31484589  0.53955225    -0.23200
C641        C  0.47787232  0.28753963  0.35742994    -0.06000
C642        C  0.00773511  0.28512847  0.36012079    -0.00100
C643        C  0.02098645  0.24635192  0.34729881    -0.08600
C644        C  0.00260843  0.20964615  0.34514346    -0.06000
C645        C  0.47330918  0.21024893  0.35066247    -0.00100
C646        C  0.45916281  0.25114373  0.35518544    -0.08500
C647        C  0.42467404  0.25641363  0.35930678     0.61800
H648        H  0.46711484  0.31848404  0.36217308     0.12500
H649        H  0.01290382  0.17949041  0.33723925     0.12500
C650        C  0.05442919  0.24272605  0.33655687     0.62100
F651        F  0.41564123  0.29896192  0.36262331    -0.23100
F652        F  0.41509359  0.23466981  0.38802467    -0.20400
F653        F  0.41022854  0.24038089  0.33102225    -0.20100
F654        F  0.07317362  0.24695372  0.36455654    -0.20200
F655        F  0.06074715  0.27423121  0.31282694    -0.20500
F656        F  0.06140233  0.20355921  0.32181736    -0.23200
C657        C  0.50432593  0.95039366  0.49404979    -0.06000
C658        C  0.02323836  0.97115880  0.50522797    -0.00100
C659        C  0.02120891  0.01527037  0.49753457    -0.08600
C660        C  0.99569024  0.03052345  0.47973162    -0.06000
C661        C  0.47369139  0.00878426  0.47048525    -0.00100
C662        C  0.47908939  0.96413371  0.47477031    -0.08500
C663        C  0.45816373  0.93080420  0.45981788     0.61800
H664        H  0.50784448  0.91646474  0.49891681     0.12500
H665        H  0.99381848  0.06444534  0.47382322     0.12500
C666        C  0.04459931  0.04695767  0.50973686     0.62100
F667        F  0.46178610  0.89152933  0.47598800    -0.23100
F668        F  0.46494707  0.92509792  0.42577238    -0.20400
F669        F  0.42776932  0.94371273  0.46340004    -0.20100
F670        F  0.07293159  0.02715248  0.51485587    -0.20200
F671        F  0.03452914  0.06518687  0.53981264    -0.20500
F672        F  0.04841502  0.07919230  0.48592958    -0.23200
C673        C  0.39533052  0.14724331  0.48896351    -0.06000
C674        C  0.37912936  0.14948359  0.45794101    -0.00100
C675        C  0.34690038  0.15698159  0.45973864    -0.08600
C676        C  0.33212634  0.15708102  0.49193648    -0.06000
C677        C  0.34792089  0.14970963  0.52287406    -0.00100
C678        C  0.38052640  0.14717444  0.52120571    -0.08500
C679        C  0.39988900  0.14088484  0.55272720     0.61800
H680        H  0.41997204  0.14247646  0.48782347     0.12500
H681        H  0.30739910  0.16076150  0.49295045     0.12500
C682        C  0.32782313  0.16465048  0.42801372     0.62100
F683        F  0.43095543  0.14327893  0.54574972    -0.23100
F684        F  0.39465957  0.10090097  0.56613849    -0.20400
F685        F  0.39259996  0.17207707  0.57636035    -0.20100
F686        F  0.32542458  0.12693744  0.41016008    -0.20200
F687        F  0.34139559  0.19526153  0.40770668    -0.20500
F688        F  0.29842184  0.17924413  0.43576426    -0.23200
C689        C  0.13838470  0.65233645  0.99506565    -0.06000
C690        C  0.12245567  0.65045442  0.96380286    -0.00100
C691        C  0.08988524  0.65005089  0.96542502    -0.08600
C692        C  0.07511980  0.64645033  0.99746563    -0.06000
C693        C  0.09115990  0.64374922  0.02868477    -0.00100
C694        C  0.12346235  0.64940845  0.02730280    -0.08500
C695        C  0.14251138  0.65071175  0.05939662     0.61800
H696        H  0.16314033  0.65380571  0.99417083     0.12500
H697        H  0.05041618  0.64376771  0.99803449     0.12500
C698        C  0.07031519  0.65241999  0.93360386     0.62100
F699        F  0.14163173  0.61155354  0.07580878    -0.23100
F700        F  0.13107953  0.68241305  0.08062940    -0.20400
F701        F  0.17291214  0.65954373  0.05256899    -0.20100
F702        F  0.07140680  0.61337392  0.91721692    -0.20200
F703        F  0.08079462  0.68410252  0.91202839    -0.20500
F704        F  0.03995237  0.66228409  0.94112593    -0.23200
C705        C  0.02347361  0.52244779  0.99160618    -0.06000
C706        C  0.03051855  0.49294112  0.01742332    -0.00100
C707        C  0.51389410  0.44945549  0.02072103    -0.08600
C708        C  0.49029634  0.44277636  0.99755047    -0.06000
C709        C  0.47946476  0.47570215  0.97580051    -0.00100
C710        C  0.49592726  0.51466289  0.97383858    -0.08500
C711        C  0.98778564  0.55352413  0.94768638     0.61800
H712        H  0.03382286  0.55364142  0.99288518     0.12500
H713        H  0.47950962  0.41209759  0.99736384     0.12500
C714        C  0.52267091  0.41516265  0.04658894     0.62100
F715        F  0.00225232  0.59112705  0.95573208    -0.23100
F716        F  0.45451216  0.56211840  0.95918633    -0.20400
F717        F  0.99387036  0.54519218  0.91383870    -0.20100
F718        F  0.51342332  0.42768046  0.07872798    -0.20200
F719        F  0.06305593  0.41491530  0.03901906    -0.20500
F720        F  0.50915985  0.37651162  0.03949996    -0.23200
C721        C  0.08307742  0.48717955  0.22595952    -0.06000
C722        C  0.05530332  0.51043194  0.22155844    -0.00100
C723        C  0.03111568  0.50368830  0.24508509    -0.08600
C724        C  0.03601184  0.47521370  0.27275323    -0.06000
C725        C  0.06400836  0.45274224  0.27757118    -0.00100
C726        C  0.08795292  0.45884852  0.25375286    -0.08500
C727        C  0.11860586  0.43562102  0.25807116     0.61800
H728        H  0.10083151  0.49063969  0.20694283     0.12500
H729        H  0.51888854  0.47410773  0.29100373     0.12500
C730        C  0.50191888  0.53284919  0.24247422     0.62100
F731        F  0.13846351  0.44398968  0.23141881    -0.23100
F732        F  0.11409067  0.39194641  0.25942772    -0.20400
F733        F  0.13231813  0.44832633  0.28788519    -0.20100
F734        F  0.48583687  0.52007705  0.21423480    -0.20200
F735        F  0.50769364  0.57612765  0.23976518    -0.20500
F736        F  0.48345332  0.52673943  0.27068628    -0.23200
C737        C  0.39621697  0.99719407  0.26303031    -0.06000
C738        C  0.41863337  0.02878348  0.26706684    -0.00100
C739        C  0.44248549  0.03098907  0.24275033    -0.08600
C740        C  0.44279266  0.00192792  0.21516143    -0.06000
C741        C  0.42065985  0.96974650  0.21170613    -0.00100
C742        C  0.39674797  0.96785095  0.23590702    -0.08500
C743        C  0.37172631  0.93511238  0.23287795     0.61800
H744        H  0.37874760  0.99439425  0.28248420     0.12500
H745        H  0.46026168  0.00443777  0.19564999     0.12500
C746        C  0.46772722  0.06321548  0.24650600     0.62100
F747        F  0.35017591  0.93902647  0.25866586    -0.23100
F748        F  0.38467619  0.89435241  0.23452699    -0.20400
F749        F  0.35665489  0.94037567  0.20223128    -0.20100
F750        F  0.98060462  0.06092986  0.27512145    -0.20200
F751        F  0.45506168  0.10419377  0.24626921    -0.20500
F752        F  0.48898796  0.06023232  0.22036663    -0.23200
C753        C  0.46271155  0.75015665  0.15122656    -0.06000
C754        C  0.47887407  0.78754880  0.14341628    -0.00100
C755        C  0.00842779  0.78043098  0.15041729    -0.08600
C756        C  0.02282916  0.73945227  0.14960967    -0.06000
C757        C  0.00590915  0.70189944  0.14965574    -0.00100
C758        C  0.47770554  0.70973965  0.15445761    -0.08500
C759        C  0.45891214  0.67254888  0.16691970     0.61800
H760        H  0.43795881  0.75202064  0.15377099     0.12500
H761        H  0.04762468  0.73688239  0.14776043     0.12500
C762        C  0.02951629  0.81787156  0.15509912     0.62100
F763        F  0.44625888  0.68283921  0.19818431    -0.23100
F764        F  0.47619514  0.63523997  0.17096137    -0.20400
F765        F  0.43546193  0.66528097  0.14435763    -0.20100
F766        F  0.01408357  0.85648457  0.15969863    -0.20200
F767        F  0.04880181  0.82077987  0.12729495    -0.20500
F768        F  0.04728200  0.81053134  0.18369682    -0.23200
C769        C  0.00624609  0.96228393  0.96721794    -0.06000
C770        C  0.02132402  0.99955659  0.97769905    -0.00100
C771        C  0.49185705  0.03748477  0.99680156    -0.08600
C772        C  0.46385841  0.02139128  0.00819828    -0.06000
C773        C  0.45580833  0.97844545  0.00300198    -0.00100
C774        C  0.97878323  0.94893367  0.98195074    -0.08500
C775        C  0.96327199  0.91170500  0.96495732     0.61800
H776        H  0.01473149  0.94458059  0.94540291     0.12500
H777        H  0.44944588  0.04102653  0.02458857     0.12500
C778        C  0.50077174  0.08219064  0.00769541     0.62100
F779        F  0.93347418  0.90618277  0.97577683    -0.23100
F780        F  0.98050249  0.87480318  0.97085379    -0.20400
F781        F  0.96216237  0.91851344  0.93022588    -0.20100
F782        F  0.50005121  0.10972714  0.98005577    -0.20200
F783        F  0.52985020  0.08083841  0.02168497    -0.20500
F784        F  0.48092399  0.09894134  0.03199023    -0.23200
C785        C  0.34838161  0.83763880  0.02835532    -0.06000
C786        C  0.38039512  0.83194025  0.02929204    -0.00100
C787        C  0.39531759  0.82066960  0.99809962    -0.08600
C788        C  0.37934930  0.82687013  0.96693413    -0.06000
C789        C  0.34771360  0.83688258  0.96583130    -0.00100
C790        C  0.33153177  0.83672432  0.99763755    -0.08500
C791        C  0.29679943  0.83418494  0.00013596     0.61800
H792        H  0.33638304  0.84308777  0.05212569     0.12500
H793        H  0.39154942  0.82314195  0.94309213     0.12500
C794        C  0.42685280  0.79900084  0.99745172     0.62100
F795        F  0.28715857  0.82671278  0.03317853    -0.23100
F796        F  0.28678453  0.80061664  0.98059112    -0.20400
F797        F  0.28300610  0.87193598  0.98938735    -0.20100
F798        F  0.42731609  0.76484986  0.02002440    -0.20200
F799        F  0.44928083  0.82713816  0.00630939    -0.20500
F800        F  0.43404602  0.78319553  0.96553968    -0.23200
C801        C  0.37239937  0.33563723  0.02486023    -0.06000
C802        C  0.34041921  0.34038731  0.02260512    -0.00100
C803        C  0.32722763  0.33913826  0.98955481    -0.08600
C804        C  0.34622982  0.34369043  0.96062442    -0.06000
C805        C  0.37844456  0.34320699  0.96275199    -0.00100
C806        C  0.39155588  0.33461733  0.99557181    -0.08500
C807        C  0.42543770  0.32468600  0.00046820     0.61800
H808        H  0.38251574  0.33451148  0.04993917     0.12500
H809        H  0.33555082  0.34688579  0.93587708     0.12500
C810        C  0.29353395  0.33123023  0.98320015     0.62100
F811        F  0.43220027  0.31300783  0.03366163    -0.23100
F812        F  0.44217202  0.36018898  0.99272210    -0.20400
F813        F  0.43445660  0.29109380  0.97973198    -0.20100
F814        F  0.27942037  0.36834591  0.97135132    -0.20200
F815        F  0.27838173  0.31699259  0.01191379    -0.20500
F816        F  0.29086460  0.29987671  0.95875325    -0.23200
C817        C  0.22315678  0.54786882  0.00658326    -0.06000
C818        C  0.21090690  0.51771404  0.98417738    -0.00100
C819        C  0.22457623  0.47639129  0.98214066    -0.08600
C820        C  0.25304055  0.46958807  0.99698270    -0.06000
C821        C  0.26262790  0.49640321  0.02299151    -0.00100
C822        C  0.24834243  0.53700305  0.02730799    -0.08500
C823        C  0.25956660  0.56804817  0.05371000     0.61800
H824        H  0.21316074  0.57988101  0.00755450     0.12500
H825        H  0.26406873  0.43837925  0.99435384     0.12500
C826        C  0.20945027  0.43827085  0.96589413     0.62100
F827        F  0.24444031  0.60738542  0.05139809    -0.23100
F828        F  0.29058698  0.57440629  0.04894526    -0.20400
F829        F  0.25475336  0.55175522  0.08598546    -0.20100
F830        F  0.22368218  0.42897459  0.93528038    -0.20200
F831        F  0.17842372  0.44561430  0.96064690    -0.20500
F832        F  0.21228906  0.40291326  0.98713734    -0.23200
C833        C  0.43931075  0.48692379  0.13983348    -0.06000
C834        C  0.44310125  0.52359335  0.11957314    -0.00100
C835        C  0.41888182  0.53794025  0.09811487    -0.08600
C836        C  0.39150259  0.51480043  0.09805130    -0.06000
C837        C  0.38848578  0.47696314  0.11714654    -0.00100
C838        C  0.41267590  0.46274938  0.13854838    -0.08500
C839        C  0.41049503  0.42245575  0.16015845     0.61800
H840        H  0.45822237  0.47621933  0.15576585     0.12500
H841        H  0.37243662  0.52536022  0.08230491     0.12500
C842        C  0.42234522  0.57586662  0.07418577     0.62100
F843        F  0.43615672  0.41591002  0.18030511    -0.23100
F844        F  0.40782985  0.38714975  0.13945200    -0.20400
F845        F  0.38529213  0.42563068  0.18138017    -0.20100
F846        F  0.44684919  0.56856129  0.05241627    -0.20200
F847        F  0.42732537  0.61243857  0.09267255    -0.20500
F848        F  0.39638824  0.58302626  0.05461720    -0.23200
C849        C  0.18970117  0.48925774  0.14847923    -0.06000
C850        C  0.19385532  0.45227771  0.12864382    -0.00100
C851        C  0.16895242  0.43658811  0.10971968    -0.08600
C852        C  0.14113667  0.46006825  0.11006024    -0.06000
C853        C  0.13802609  0.49896312  0.12748568    -0.00100
C854        C  0.16226152  0.51343078  0.14788939    -0.08500
C855        C  0.15940442  0.55411010  0.16877930     0.61800
H856        H  0.20897826  0.50055388  0.16294377     0.12500
H857        H  0.12180417  0.44917477  0.09546945     0.12500
C858        C  0.17202627  0.39697173  0.08769736     0.62100
F859        F  0.18495600  0.56002826  0.18886885    -0.23100
F860        F  0.13415893  0.55219593  0.18998100    -0.20400
F861        F  0.15621805  0.58924403  0.14747113    -0.20100
F862        F  0.18038984  0.36202285  0.10755436    -0.20200
F863        F  0.19401009  0.40322303  0.06284460    -0.20500
F864        F  0.14476422  0.38765346  0.07168873    -0.23200
C865        C  0.29529956  0.03644417  0.10928875    -0.06000
C866        C  0.27028219  0.00895993  0.11028756    -0.00100
C867        C  0.27563839  0.96397400  0.11033236    -0.08600
C868        C  0.30613598  0.94824922  0.10974112    -0.06000
C869        C  0.33111187  0.97580490  0.10820753    -0.00100
C870        C  0.32572938  0.02078565  0.10828657    -0.08500
C871        C  0.35178363  0.05236806  0.10807404     0.61800
H872        H  0.29070367  0.07066961  0.10887856     0.12500
H873        H  0.31078467  0.91404390  0.10988341     0.12500
C874        C  0.24949942  0.93261703  0.10948247     0.62100
F875        F  0.34127296  0.09410745  0.11255976    -0.23100
F876        F  0.36713692  0.05050759  0.07729780    -0.20400
F877        F  0.37198666  0.04271367  0.13416250    -0.20100
F878        F  0.23087713  0.94150554  0.08184147    -0.20200
F879        F  0.23243545  0.93577556  0.13907230    -0.20500
F880        F  0.26004392  0.89065004  0.10666428    -0.23200
C881        C  0.02515079  0.01494485  0.12117966    -0.06000
C882        C  0.02255115  0.97527146  0.10494382    -0.00100
C883        C  0.04870392  0.95780955  0.08735391    -0.08600
C884        C  0.07657163  0.97924015  0.08933421    -0.06000
C885        C  0.07919520  0.01851767  0.10593130    -0.00100
C886        C  0.05255678  0.03786190  0.12076430    -0.08500
C887        C  0.05205051  0.08335322  0.13434595     0.61800
H888        H  0.00508128  0.02886058  0.13346642     0.12500
H889        H  0.09682047  0.96529791  0.07748442     0.12500
C890        C  0.04798383  0.91740536  0.06581745     0.62100
F891        F  0.02243833  0.09845258  0.14034533    -0.23100
F892        F  0.06516802  0.11045205  0.11078920    -0.20400
F893        F  0.06792579  0.08508864  0.16459012    -0.20100
F894        F  0.02830743  0.92370126  0.03871567    -0.20200
F895        F  0.03851056  0.88323277  0.08525091    -0.20500
F896        F  0.07648132  0.90636428  0.05245703    -0.23200
C897        C  0.25556679  0.19971488  0.14178511    -0.06000
C898        C  0.22313223  0.20277293  0.14181629    -0.00100
C899        C  0.20917092  0.24403089  0.14640753    -0.08600
C900        C  0.22805178  0.28038435  0.14721303    -0.06000
C901        C  0.26010682  0.27723252  0.14342245    -0.00100
C902        C  0.27418612  0.23618626  0.14182649    -0.08500
C903        C  0.30869002  0.23130562  0.13780749     0.61800
H904        H  0.26641784  0.16838633  0.13928087     0.12500
H905        H  0.21769151  0.31217402  0.14816359     0.12500
C906        C  0.17458347  0.25051309  0.14836058     0.62100
F907        F  0.31819966  0.18873747  0.13732330    -0.23100
F908        F  0.32298900  0.25098682  0.16464705    -0.20400
F909        F  0.31787194  0.25022905  0.10767528    -0.20100
F910        F  0.16294064  0.22615728  0.17469037    -0.20200
F911        F  0.16138105  0.23868184  0.11801838    -0.20500
F912        F  0.16624887  0.29281747  0.15437722    -0.23200
C913        C  0.08553370  0.16480692  0.99026530    -0.06000
C914        C  0.10229089  0.15015623  0.96153242    -0.00100
C915        C  0.13447189  0.14307191  0.96596976    -0.08600
C916        C  0.14746857  0.14668286  0.99880172    -0.06000
C917        C  0.12996322  0.15667450  0.02799043    -0.00100
C918        C  0.09879776  0.16927364  0.02291142    -0.08500
C919        C  0.07875399  0.18983983  0.05008634     0.61800
H920        H  0.06134362  0.17267952  0.98747593     0.12500
H921        H  0.17160306  0.13928919  0.00213782     0.12500
C922        C  0.15531738  0.13050787  0.93673191     0.62100
F923        F  0.06792915  0.22914984  0.03827622    -0.23100
F924        F  0.09418106  0.19697133  0.08003450    -0.20400
F925        F  0.05398006  0.16416990  0.05670364    -0.20100
F926        F  0.15245860  0.16087980  0.91117979    -0.20200
F927        F  0.14744827  0.09065440  0.92503067    -0.20500
F928        F  0.18590454  0.12817558  0.94606798    -0.23200
C929        C  0.23426086  0.96435117  0.97344592    -0.06000
C930        C  0.26119288  0.98768494  0.96888783    -0.00100
C931        C  0.26348889  0.02908654  0.98252994    -0.08600
C932        C  0.23882688  0.04522942  0.00176671    -0.06000
C933        C  0.21227050  0.02130545  0.00719139    -0.00100
C934        C  0.20928451  0.98100565  0.99186117    -0.08500
C935        C  0.17935688  0.95706995  0.99342976     0.61800
H936        H  0.23252252  0.93338613  0.96144364     0.12500
H937        H  0.24072495  0.07595438  0.01411085     0.12500
C938        C  0.29223992  0.05512645  0.97794050     0.62100
F939        F  0.17992592  0.92176700  0.97231789    -0.23100
F940        F  0.15555596  0.98407700  0.98309040    -0.20400
F941        F  0.17367307  0.94297335  0.02614507    -0.20100
F942        F  0.29575967  0.06647071  0.94417277    -0.20200
F943        F  0.31758441  0.03113113  0.98833285    -0.20500
F944        F  0.29104219  0.09237237  0.99682864    -0.23200
C945        C  0.33669759  0.65729969  0.48895643    -0.06000
C946        C  0.35468741  0.64976408  0.45949934    -0.00100
C947        C  0.38720900  0.64953247  0.46344164    -0.08600
C948        C  0.39991844  0.65290453  0.49640287    -0.06000
C949        C  0.38181435  0.65594877  0.52609391    -0.00100
C950        C  0.34951044  0.66040775  0.52196787    -0.08500
C951        C  0.32833873  0.66830970  0.55208576     0.61800
H952        H  0.31199372  0.65850547  0.48635677     0.12500
H953        H  0.42455177  0.65019157  0.49930437     0.12500
C954        C  0.40894094  0.64335566  0.43361318     0.62100
F955        F  0.29906496  0.68051914  0.54185407    -0.23100
F956        F  0.33961547  0.70081061  0.57190061    -0.20400
F957        F  0.32609121  0.63136671  0.57136094    -0.20100
F958        F  0.40099051  0.67115723  0.40743932    -0.20200
F959        F  0.40760266  0.60155317  0.42267513    -0.20500
F960        F  0.43906064  0.65116657  0.44226777    -0.23200
C961        C  0.24293140  0.53445760  0.48384001    -0.06000
C962        C  0.26854831  0.50798787  0.47650672    -0.00100
C963        C  0.26788061  0.46381045  0.48463259    -0.08600
C964        C  0.24142295  0.44766256  0.49963069    -0.06000
C965        C  0.21634955  0.47449527  0.50797437    -0.00100
C966        C  0.21630555  0.51795431  0.49814321    -0.08500
C967        C  0.18839768  0.54746067  0.50133225     0.61800
H968        H  0.24261602  0.56772309  0.47569777     0.12500
H969        H  0.24160564  0.41441742  0.50772584     0.12500
C970        C  0.29444378  0.43257469  0.47848312     0.62100
F971        F  0.18221124  0.56619900  0.47006436    -0.23100
F972        F  0.19424147  0.57926832  0.52455765    -0.20400
F973        F  0.16250271  0.52590985  0.51147864    -0.20100
F974        F  0.32125575  0.45274989  0.46965825    -0.20200
F975        F  0.28667921  0.40474902  0.45285834    -0.20500
F976        F  0.30020842  0.40912147  0.50779287    -0.23200
C977        C  0.42799184  0.53509291  0.37118761    -0.06000
C978        C  0.40376192  0.50760290  0.37901647    -0.00100
C979        C  0.41014093  0.46334542  0.38426751    -0.08600
C980        C  0.44070684  0.44860776  0.38181643    -0.06000
C981        C  0.46498061  0.47648235  0.37541895    -0.00100
C982        C  0.45868742  0.52066390  0.37046048    -0.08500
C983        C  0.48410115  0.55289019  0.36656551     0.61800
H984        H  0.42273638  0.56860039  0.36637246     0.12500
H985        H  0.44612329  0.41498337  0.38603491     0.12500
C986        C  0.38514500  0.43150999  0.39207831     0.62100
F987        F  0.47268797  0.59454258  0.36459274    -0.23100
F988        F  0.50068612  0.54472525  0.33725608    -0.20400
F989        F  0.50343726  0.55015963  0.39431589    -0.20100
F990        F  0.36270468  0.43393088  0.36733903    -0.20200
F991        F  0.37230038  0.44042150  0.42348116    -0.20500
F992        F  0.39642450  0.38973517  0.39304597    -0.23200
C993        C  0.21100746  0.46493769  0.38878971    -0.06000
C994        C  0.21337076  0.50661594  0.37572921    -0.00100
C995        C  0.18671325  0.52932072  0.36497584    -0.08600
C996        C  0.15815893  0.50953458  0.36813276    -0.06000
C997        C  0.15567502  0.46810781  0.38174746    -0.00100
C998        C  0.18243171  0.44523495  0.39221028    -0.08500
C999        C  0.18055239  0.40142866  0.40876358     0.61800
H1000       H  0.23170013  0.44859309  0.39757477     0.12500
H1001       H  0.13743691  0.52629350  0.35993198     0.12500
C1002       C  0.18860201  0.57403689  0.35004965     0.62100
F1003       F  0.20900234  0.38608788  0.41935896    -0.23100
F1004       F  0.16893098  0.37242598  0.38604757    -0.20400
F1005       F  0.16156235  0.40416153  0.43689514    -0.20100
F1006       F  0.20941842  0.57403397  0.32342582    -0.20200
F1007       F  0.19800792  0.60201223  0.37477698    -0.20500
F1008       F  0.16054301  0.58869472  0.33777859    -0.23200
C1009       C  0.33412805  0.49374009  0.21973487    -0.06000
C1010       C  0.31262910  0.46069176  0.21885982    -0.00100
C1011       C  0.29169835  0.45638188  0.24601135    -0.08600
C1012       C  0.29264722  0.48560654  0.27304245    -0.06000
C1013       C  0.31409893  0.51869443  0.27413944    -0.00100
C1014       C  0.33559395  0.52241696  0.24735565    -0.08500
C1015       C  0.36027266  0.55580475  0.24854389     0.61800
H1016       H  0.34935459  0.49753500  0.19816268     0.12500
H1017       H  0.27718343  0.48187222  0.29441688     0.12500
C1018       C  0.26917105  0.42001248  0.24671307     0.62100
F1019       F  0.37902611  0.55423403  0.22009513    -0.23100
F1020       F  0.37842346  0.54906169  0.27692411    -0.20400
F1021       F  0.34674747  0.59619522  0.25020747    -0.20100
F1022       F  0.28516369  0.38138633  0.24445044    -0.20200
F1023       F  0.24914235  0.42378919  0.21965322    -0.20500
F1024       F  0.25203686  0.41964991  0.27639675    -0.23200
C1025       C  0.28941756  0.99016251  0.34796174    -0.06000
C1026       C  0.28662203  0.95325187  0.36808513    -0.00100
C1027       C  0.31226853  0.93824756  0.38696747    -0.08600
C1028       C  0.33905584  0.96290034  0.38705616    -0.06000
C1029       C  0.34121574  0.00172693  0.36870412    -0.00100
C1030       C  0.31602516  0.01475700  0.34755537    -0.08500
C1031       C  0.31611541  0.05451973  0.32480900     0.61800
H1032       H  0.26960700  0.00070621  0.33340103     0.12500
H1033       H  0.35845742  0.95215562  0.40217382     0.12500
C1034       C  0.31111919  0.89726265  0.40775176     0.62100
F1035       F  0.28919850  0.05961406  0.30648864    -0.23100
F1036       F  0.33982194  0.05148574  0.30148722    -0.20400
F1037       F  0.31922561  0.09080357  0.34431977    -0.20100
F1038       F  0.30474097  0.86336934  0.38666338    -0.20200
F1039       F  0.28858804  0.90094242  0.43244674    -0.20500
F1040       F  0.33873714  0.88808174  0.42374702    -0.23200
C1041       C  0.03527289  0.97812933  0.35126353    -0.06000
C1042       C  0.03126494  0.01934494  0.36487165    -0.00100
C1043       C  0.05752200  0.04154578  0.37596760    -0.08600
C1044       C  0.08604452  0.01964567  0.37689150    -0.06000
C1045       C  0.08954289  0.97724481  0.36580952    -0.00100
C1046       C  0.06411854  0.95695822  0.35073393    -0.08500
C1047       C  0.06732832  0.91399690  0.33294864     0.61800
H1048       H  0.01534684  0.96184054  0.34193735     0.12500
H1049       H  0.10590697  0.03548055  0.38690075     0.12500
C1050       C  0.05605334  0.08858429  0.38555047     0.62100
F1051       F  0.04113028  0.90429333  0.31502547    -0.23100
F1052       F  0.07255575  0.88162904  0.35641560    -0.20400
F1053       F  0.09143125  0.91494835  0.31003693    -0.20100
F1054       F  0.04208922  0.09375497  0.41684256    -0.20200
F1055       F  0.03976313  0.11148655  0.36118667    -0.20500
F1056       F  0.08500817  0.10577171  0.38742647    -0.23200
C1057       C  0.14499758  0.98501267  0.26299649    -0.06000
C1058       C  0.17282405  0.96303522  0.26988751    -0.00100
C1059       C  0.19804926  0.96916006  0.24761182    -0.08600
C1060       C  0.19482552  0.99792839  0.21988152    -0.06000
C1061       C  0.16728163  0.02075322  0.21342972    -0.00100
C1062       C  0.14162821  0.01304361  0.23472010    -0.08500
C1063       C  0.11057332  0.03326113  0.22673422     0.61800
H1064       H  0.12597257  0.98060543  0.28034610     0.12500
H1065       H  0.21374871  0.00205106  0.20232658     0.12500
C1066       C  0.22797781  0.94415699  0.25247728     0.62100
F1067       F  0.08899472  0.02420058  0.25151405    -0.23100
F1068       F  0.10021360  0.01767188  0.19614048    -0.20400
F1069       F  0.11305887  0.07724525  0.22440529    -0.20100
F1070       F  0.22202517  0.90110027  0.25663653    -0.20200
F1071       F  0.24306154  0.95867504  0.28083071    -0.20500
F1072       F  0.24734689  0.94840691  0.22475984    -0.23200
C1073       C  0.25561585  0.77859996  0.34421453    -0.06000
C1074       C  0.22345953  0.77677961  0.34524717    -0.00100
C1075       C  0.20950628  0.73664717  0.34225210    -0.08600
C1076       C  0.22824887  0.69919049  0.34291544    -0.06000
C1077       C  0.26046008  0.70064550  0.34631215    -0.00100
C1078       C  0.27451631  0.74127368  0.34400449    -0.08500
C1079       C  0.30910252  0.74584908  0.34283455     0.61800
H1080       H  0.26587825  0.80979254  0.34587878     0.12500
H1081       H  0.21759629  0.66826301  0.34271880     0.12500
C1082       C  0.17492626  0.73354213  0.34017486     0.62100
F1083       F  0.31739382  0.78802679  0.33813777    -0.23100
F1084       F  0.32106603  0.72248774  0.31593870    -0.20400
F1085       F  0.32198659  0.73134420  0.37294884    -0.20100
F1086       F  0.16434115  0.75737915  0.31272308    -0.20200
F1087       F  0.16155222  0.74924843  0.36960858    -0.20500
F1088       F  0.16586067  0.69170348  0.33596401    -0.23200
C1089       C  0.15378108  0.83307565  0.49697526    -0.06000
C1090       C  0.13732344  0.83965970  0.46635433    -0.00100
C1091       C  0.10472157  0.84112961  0.46877359    -0.08600
C1092       C  0.09048990  0.84029416  0.50133769    -0.06000
C1093       C  0.10726941  0.83906649  0.53199535    -0.00100
C1094       C  0.13958719  0.83319754  0.52953021    -0.08500
C1095       C  0.15932327  0.82748722  0.56098503     0.61800
H1096       H  0.17852494  0.83017207  0.49539438     0.12500
H1097       H  0.06579186  0.84384660  0.50304192     0.12500
C1098       C  0.08473727  0.84726426  0.43770557     0.62100
F1099       F  0.18886359  0.81383887  0.55288808    -0.23100
F1100       F  0.14676530  0.79707879  0.58230169    -0.20400
F1101       F  0.16116641  0.86596876  0.57794045    -0.20100
F1102       F  0.09172692  0.81613476  0.41392037    -0.20200
F1103       F  0.08958178  0.88733131  0.42415906    -0.20500
F1104       F  0.05381279  0.84459223  0.44538744    -0.23200
C1105       C  0.23841326  0.01916718  0.45982020    -0.06000
C1106       C  0.21399601  0.99283112  0.46873792    -0.00100
C1107       C  0.21281917  0.97443740  0.50150244    -0.08600
C1108       C  0.23735866  0.98027965  0.52358922    -0.06000
C1109       C  0.26214837  0.00581198  0.51441938    -0.00100
C1110       C  0.26307559  0.02483948  0.48181970    -0.08500
C1111       C  0.28979101  0.05080261  0.46911795     0.61800
H1112       H  0.23996260  0.03148082  0.43402699     0.12500
H1113       H  0.23588995  0.96771295  0.54931288     0.12500
C1114       C  0.18658638  0.94708528  0.51343723     0.62100
F1115       F  0.30093564  0.03315799  0.43923974    -0.23100
F1116       F  0.31369798  0.05149410  0.49210145    -0.20400
F1117       F  0.27981159  0.09235357  0.46271214    -0.20100
F1118       F  0.19708994  0.90531943  0.51732677    -0.20200
F1119       F  0.16230257  0.94803979  0.49087182    -0.20500
F1120       F  0.17583325  0.96181800  0.54442881    -0.23200
O1121       O  0.64731797  0.84609075  0.40770411    -0.85600
O1122       O  0.62289452  0.91862839  0.37946357    -0.82600
C1123       C  0.62035328  0.95803591  0.37366411     0.97900
O1124       O  0.64399400  0.98019199  0.36996934    -0.82600
O1125       O  0.68216817  0.97878926  0.42710715    -0.85300
C1126       C  0.70316234  0.96608757  0.44687723     1.02400
O1127       O  0.72004531  0.93440199  0.43981873    -0.78000
O1128       O  0.68026961  0.87114140  0.44433548    -0.78200
C1129       C  0.65532746  0.85303400  0.43859182     1.02400
O1130       O  0.68747368  0.83896393  0.34413907    -0.85600
O1131       O  0.65945015  0.91527431  0.31921997    -0.82600
C1132       C  0.67717000  0.94504159  0.30928037     0.97900
O1133       O  0.69593976  0.96119730  0.32933440    -0.82600
O1134       O  0.73408085  0.96750343  0.38294743    -0.85300
C1135       C  0.75446798  0.93854234  0.37854106     1.02400
O1136       O  0.74775339  0.89943176  0.38151561    -0.78100
O1137       O  0.71165017  0.82715367  0.39162158    -0.78200
C1138       C  0.70644612  0.81709817  0.36148378     1.02400
Cr1139     Cr  0.65692137  0.88127491  0.36406897     1.93700
Cr1140     Cr  0.68857418  0.96718566  0.37808324     1.93200
Cr1141     Cr  0.71261698  0.88478906  0.41168672     1.39100
O1142       O  0.68575320  0.91104496  0.38429842    -1.23300
O1143       O  0.85299502  0.62374813  0.40097771    -0.85600
O1144       O  0.86652808  0.55866694  0.35640058    -0.82600
C1145       C  0.87244601  0.52858046  0.37715626     0.97900
O1146       O  0.85146301  0.51430050  0.39595724    -0.82600
O1147       O  0.79373773  0.50457674  0.42574228    -0.85300
C1148       C  0.79064951  0.52796964  0.45136600     1.02400
O1149       O  0.79664150  0.56696666  0.44953348    -0.78000
O1150       O  0.80981816  0.64508498  0.42369079    -0.78200
C1151       C  0.83866028  0.64016958  0.42597165     1.02400
O1152       O  0.80581206  0.65685534  0.35369233    -0.85600
O1153       O  0.81563227  0.58087262  0.31367019    -0.82600
C1154       C  0.81675620  0.54063857  0.30790934     0.97900
O1155       O  0.82255463  0.51459505  0.33165329    -0.82600
O1156       O  0.76581016  0.51448983  0.36278894    -0.85300
C1157       C  0.74356772  0.52871531  0.38040707     1.02400
O1158       O  0.74714342  0.55767879  0.40233345    -0.78100
O1159       O  0.76233553  0.63391145  0.37319673    -0.78200
C1160       C  0.77710546  0.66219585  0.35775062     1.02400
Cr1161     Cr  0.83317237  0.60352842  0.35770708     1.93700
Cr1162     Cr  0.80865016  0.51651270  0.37936631     1.93200
Cr1163     Cr  0.78095432  0.59910745  0.40994537     1.39100
O1164       O  0.80709138  0.57310364  0.38194024    -1.23300
O1165       O  0.62880054  0.13133322  0.09171740    -0.85600
O1166       O  0.61536573  0.06549567  0.13523559    -0.82600
C1167       C  0.60983715  0.03797427  0.11289757     0.97900
O1168       O  0.63159014  0.02312902  0.09492758    -0.82600
O1169       O  0.68917200  0.01157760  0.06531592    -0.85300
C1170       C  0.69126759  0.03641272  0.04022010     1.02400
O1171       O  0.68489329  0.07539440  0.04336344    -0.78000
O1172       O  0.67204572  0.15279345  0.07075460    -0.78200
C1173       C  0.64335584  0.14876041  0.06755824     1.02400
O1174       O  0.67575534  0.16068258  0.14004188    -0.85600
O1175       O  0.66539499  0.08385049  0.17902642    -0.82600
C1176       C  0.66431887  0.04351766  0.18449525     0.97900
O1177       O  0.65997385  0.01813864  0.16025968    -0.82600
O1178       O  0.71677702  0.01682806  0.12889248    -0.85300
C1179       C  0.73893580  0.03025916  0.11128720     1.02400
O1180       O  0.73489173  0.06047532  0.08992902    -0.78100
O1181       O  0.71955908  0.13596681  0.12082061    -0.78200
C1182       C  0.70454625  0.16459167  0.13631880     1.02400
Cr1183     Cr  0.64842124  0.10892383  0.13505432     1.93700
Cr1184     Cr  0.67403153  0.02180555  0.11222117     1.93200
Cr1185     Cr  0.70098329  0.10432484  0.08336086     1.39100
O1186       O  0.67511845  0.07834199  0.11087923    -1.23300
O1187       O  0.83163310  0.34136945  0.08702825    -0.85600
O1188       O  0.85695215  0.41352160  0.11272200    -0.82600
C1189       C  0.85865315  0.45294552  0.11858304     0.97900
O1190       O  0.83504302  0.47531605  0.12528403    -0.82600
O1191       O  0.79534866  0.47915314  0.07060933    -0.85300
C1192       C  0.77386288  0.46804548  0.05163445     1.02400
O1193       O  0.75790245  0.43635827  0.05913706    -0.78000
O1194       O  0.79957837  0.37245725  0.05103623    -0.78200
C1195       C  0.82355239  0.35025916  0.05634135     1.02400
O1196       O  0.79401180  0.33622649  0.15175527    -0.85600
O1197       O  0.82352485  0.41061776  0.17541905    -0.82600
C1198       C  0.80532987  0.44006129  0.18642856     0.97900
O1199       O  0.78467826  0.45570913  0.16787278    -0.82600
O1200       O  0.74502167  0.46586419  0.11672230    -0.85300
C1201       C  0.72552171  0.43682631  0.12076915     1.02400
O1202       O  0.73318663  0.39780969  0.11691067    -0.78100
O1203       O  0.77084680  0.32580389  0.10378007    -0.78200
C1204       C  0.77545761  0.31524461  0.13414944     1.02400
Cr1205     Cr  0.82405212  0.37707853  0.13059356     1.93700
Cr1206     Cr  0.79057501  0.46449395  0.11938873     1.93200
Cr1207     Cr  0.76754117  0.38456353  0.08500887     1.39100
O1208       O  0.79439471  0.40873592  0.11187879    -1.23300
O1209       O  0.92510740  0.83689945  0.06694840    -0.85600
O1210       O  0.94035418  0.91431957  0.03785271    -0.82600
C1211       C  0.94544365  0.95369909  0.03562472     0.97900
O1212       O  0.93869069  0.97753421  0.06007751    -0.82600
O1213       O  0.88277798  0.96936693  0.09160708    -0.85300
C1214       C  0.86195385  0.95587672  0.11087766     1.02400
O1215       O  0.86788967  0.92601631  0.13189161    -0.78000
O1216       O  0.88229443  0.85789683  0.09062945    -0.78200
C1217       C  0.89628946  0.84091050  0.06561651     1.02400
O1218       O  0.97305319  0.84923464  0.11602483    -0.85600
O1219       O  0.48662078  0.92936527  0.08048994    -0.82600
C1220       C  0.49119157  0.95824152  0.10201909     0.97900
O1221       O  0.46938488  0.97165269  0.12071733    -0.82600
O1222       O  0.91338925  0.97302554  0.15468977    -0.85300
C1223       C  0.91761193  0.94844862  0.17964572     1.02400
O1224       O  0.91897974  0.90789576  0.17557382    -0.78100
O1225       O  0.93022701  0.82917113  0.13932168    -0.78200
C1226       C  0.95894440  0.82353680  0.13470467     1.02400
Cr1227     Cr  0.95408722  0.88320695  0.07897393     1.93700
Cr1228     Cr  0.92591408  0.96771405  0.10691619     1.93200
Cr1229     Cr  0.90209117  0.88174634  0.13249483     1.39100
O1230       O  0.92782556  0.91085710  0.10642614    -1.23300
O1231       O  0.54936560  0.60891415  0.05303861    -0.85600
O1232       O  0.51277462  0.54167675  0.05819011    -0.82600
C1233       C  0.53159839  0.51128110  0.05261421     0.97900
O1234       O  0.55043458  0.49892132  0.07487781    -0.82600
O1235       O  0.58425130  0.50111142  0.13369309    -0.85300
C1236       C  0.60782352  0.52100710  0.12535092     1.02400
O1237       O  0.60587035  0.55969421  0.11663533    -0.78000
O1238       O  0.58257975  0.63394775  0.08918267    -0.78200
C1239       C  0.57409599  0.62772102  0.05849275     1.02400
O1240       O  0.01299513  0.64909318  0.10794772    -0.85600
O1241       O  0.98085505  0.57399401  0.11377955    -0.82600
C1242       C  0.97516612  0.53461591  0.11512757     0.97900
O1243       O  0.99654930  0.50709956  0.11198278    -0.82600
O1244       O  0.53081495  0.52472875  0.16997213    -0.85300
C1245       C  0.55137952  0.53828826  0.18909701     1.02400
O1246       O  0.57032161  0.56610907  0.17817768    -0.78100
O1247       O  0.54377854  0.64418655  0.15161404    -0.78200
C1248       C  0.52367746  0.66478365  0.13459618     1.02400
Cr1249     Cr  0.51689179  0.59356885  0.08542551     1.93700
Cr1250     Cr  0.54060311  0.51360520  0.12245124     1.93200
Cr1251     Cr  0.57301792  0.59928254  0.13271994     1.39100
O1252       O  0.54355337  0.56932958  0.11387296    -1.23300
O1253       O  0.92651622  0.13908355  0.42713288    -0.85600
O1254       O  0.94341449  0.05793248  0.44368945    -0.82600
C1255       C  0.95314965  0.02004186  0.44182767     0.97900
O1256       O  0.95291377  0.00101535  0.41404867    -0.82600
O1257       O  0.89352680  0.00820292  0.38791318    -0.85300
C1258       C  0.87070874  0.02367849  0.37183427     1.02400
O1259       O  0.87351308  0.05820185  0.35524638    -0.78000
O1260       O  0.88438747  0.12061661  0.40218012    -0.78200
C1261       C  0.89772623  0.13519587  0.42808440     1.02400
O1262       O  0.97336796  0.13864569  0.37500656    -0.85600
O1263       O  0.49314475  0.06321132  0.39731373    -0.82600
C1264       C  0.49928397  0.03817078  0.37298827     0.97900
O1265       O  0.47795085  0.02447028  0.35444425    -0.82600
O1266       O  0.91960564  0.02005230  0.32402623    -0.85300
C1267       C  0.91907436  0.04865335  0.30161865     1.02400
O1268       O  0.91962179  0.08817216  0.30991644    -0.78100
O1269       O  0.92871362  0.16037188  0.35550238    -0.78200
C1270       C  0.95692852  0.16730705  0.36121573     1.02400
Cr1271     Cr  0.95723428  0.09707738  0.40782349     1.93700
Cr1272     Cr  0.93546501  0.01787755  0.37012325     1.93200
Cr1273     Cr  0.90396031  0.10527072  0.35708508     1.39100
O1274       O  0.93257679  0.07380808  0.37776192    -1.23300
O1275       O  0.55984955  0.34225837  0.43231116    -0.85600
O1276       O  0.54967231  0.42517790  0.45230669    -0.82600
C1277       C  0.54270408  0.46429806  0.45175402     0.97900
O1278       O  0.54520269  0.48516020  0.42465156    -0.82600
O1279       O  0.60353906  0.46977944  0.39739324    -0.85300
C1280       C  0.62506813  0.45135455  0.38123947     1.02400
O1281       O  0.61999737  0.41913073  0.36281675    -0.78000
O1282       O  0.60386037  0.35739406  0.40991749    -0.78200
C1283       C  0.58850076  0.34392241  0.43521579     1.02400
O1284       O  0.01200091  0.35457470  0.38438065    -0.85600
O1285       O  0.99940518  0.43514782  0.40555816    -0.82600
C1286       C  0.99615241  0.46034287  0.38050887     0.97900
O1287       O  0.01889520  0.47081749  0.36246707    -0.82600
O1288       O  0.57673276  0.46469561  0.33268966    -0.85300
C1289       C  0.57060347  0.43728451  0.31070449     1.02400
O1290       O  0.56935317  0.39777342  0.31896767    -0.78100
O1291       O  0.55685354  0.32643597  0.36236134    -0.78200
C1292       C  0.52797238  0.32386100  0.36626943     1.02400
Cr1293     Cr  0.53296774  0.39021463  0.41550039     1.93700
Cr1294     Cr  0.56120362  0.46782277  0.37973160     1.93200
Cr1295     Cr  0.58563923  0.37700221  0.36482166     1.39100
O1296       O  0.55958938  0.41152497  0.38625708    -1.23300
O1297       O  0.80532650  0.11811767  0.55080314    -0.85600
O1298       O  0.76109664  0.05954583  0.55493962    -0.82600
C1299       C  0.77646489  0.02755042  0.54577076     0.97900
O1300       O  0.79848226  0.01346710  0.56330623    -0.82600
O1301       O  0.83999927  0.00639453  0.61633704    -0.85300
C1302       C  0.86366096  0.02896822  0.61613384     1.02400
O1303       O  0.86143945  0.06904387  0.61635279    -0.78000
O1304       O  0.83802971  0.14200235  0.58835821    -0.78200
C1305       C  0.83054132  0.13532017  0.55718956     1.02400
O1306       O  0.77656700  0.16436962  0.60324779    -0.85600
O1307       O  0.73745091  0.09382776  0.61418318    -0.82600
C1308       C  0.72977223  0.05492725  0.61707136     0.97900
O1309       O  0.74925114  0.02461130  0.61237084    -0.82600
O1310       O  0.79141257  0.02077605  0.66248189    -0.85300
C1311       C  0.80897105  0.03753794  0.68354291     1.02400
O1312       O  0.82416206  0.07079254  0.67558016    -0.78100
O1313       O  0.79686007  0.14888170  0.65194687    -0.78200
C1314       C  0.77988225  0.17302651  0.63392977     1.02400
Cr1315     Cr  0.77247351  0.10689169  0.58346544     1.93700
Cr1316     Cr  0.79522430  0.02127850  0.61313051     1.93200
Cr1317     Cr  0.82741658  0.10622883  0.63157639     1.39100
O1318       O  0.79865663  0.07784684  0.61000483    -1.23300
O1319       O  0.68077696  0.34505545  0.56770608    -0.85600
O1320       O  0.69439584  0.42284678  0.54087784    -0.82600
C1321       C  0.70105162  0.46154372  0.53840074     0.97900
O1322       O  0.69867656  0.48546553  0.56376660    -0.82600
O1323       O  0.63972562  0.47854286  0.58977872    -0.85300
C1324       C  0.61772984  0.46512667  0.60743936     1.02400
O1325       O  0.62209063  0.43537031  0.62902585    -0.78000
O1326       O  0.63701454  0.36691803  0.58860454    -0.78200
C1327       C  0.65207498  0.34912515  0.56467803     1.02400
O1328       O  0.72639336  0.35741845  0.61943406    -0.85600
O1329       O  0.74228957  0.43303206  0.58972479    -0.82600
C1330       C  0.74560857  0.46199469  0.61174023     0.97900
O1331       O  0.72294151  0.47585680  0.62877723    -0.82600
O1332       O  0.66448299  0.48048300  0.65586163    -0.85300
C1333       C  0.66806492  0.45570158  0.68088090     1.02400
O1334       O  0.67041070  0.41529490  0.67609122    -0.78100
O1335       O  0.68221737  0.33680432  0.63903053    -0.78200
C1336       C  0.71087358  0.33013762  0.63515500     1.02400
Cr1337     Cr  0.70890957  0.39157263  0.58155680     1.93700
Cr1338     Cr  0.68127305  0.47550841  0.60933598     1.93200
Cr1339     Cr  0.65505419  0.38999160  0.63182310     1.39100
O1340       O  0.68211007  0.41882366  0.60798270    -1.23300
O1341       O  0.80166430  0.84631826  0.93524130    -0.85600
O1342       O  0.78895246  0.92883050  0.95287358    -0.82600
C1343       C  0.78139231  0.96764765  0.95149283     0.97900
O1344       O  0.78547614  0.98811826  0.92454065    -0.82600
O1345       O  0.84626729  0.97055909  0.90323371    -0.85300
C1346       C  0.86858693  0.95269176  0.88784464     1.02400
O1347       O  0.86401938  0.92135597  0.86824316    -0.78000
O1348       O  0.84619467  0.85785294  0.91193635    -0.78200
C1349       C  0.83049497  0.84552730  0.93741183     1.02400
O1350       O  0.75781409  0.85471482  0.88104819    -0.85600
O1351       O  0.74298044  0.93506551  0.90089191    -0.82600
C1352       C  0.74075458  0.96032189  0.87575383     0.97900
O1353       O  0.76434570  0.97243725  0.85969934    -0.82600
O1354       O  0.82504795  0.96729759  0.83690833    -0.85300
C1355       C  0.81864564  0.94286013  0.81301472     1.02400
O1356       O  0.81546579  0.90310897  0.81996278    -0.78100
O1357       O  0.80136651  0.82947920  0.86156389    -0.78200
C1358       C  0.77270687  0.82568254  0.86589151     1.02400
Cr1359     Cr  0.77508914  0.89277820  0.91537351     1.93700
Cr1360     Cr  0.80533367  0.97004972  0.88171429     1.93200
Cr1361     Cr  0.82968746  0.87979178  0.86660586     1.39100
O1362       O  0.80303089  0.91379461  0.88764410    -1.23300
O1363       O  0.66897432  0.65002557  0.92830057    -0.85600
O1364       O  0.68559540  0.57150110  0.95276795    -0.82600
C1365       C  0.69527702  0.53348630  0.95341002     0.97900
O1366       O  0.69729164  0.51279744  0.92627637    -0.82600
O1367       O  0.64068643  0.51483630  0.89440982    -0.85300
C1368       C  0.61825370  0.52938976  0.87737808     1.02400
O1369       O  0.62158613  0.56129169  0.85784554    -0.78000
O1370       O  0.62891866  0.62593539  0.90299215    -0.78200
C1371       C  0.64068745  0.64221076  0.92911519     1.02400
O1372       O  0.71945735  0.64390321  0.88077430    -0.85600
O1373       O  0.73885013  0.56908419  0.90930267    -0.82600
C1374       C  0.74687889  0.54383387  0.88567352     0.97900
O1375       O  0.72710148  0.52959770  0.86535462    -0.82600
O1376       O  0.67152777  0.52190141  0.83169286    -0.85300
C1377       C  0.67181951  0.54926431  0.80815690     1.02400
O1378       O  0.67007906  0.58917891  0.81508665    -0.78100
O1379       O  0.67597316  0.66377726  0.85728433    -0.78200
C1380       C  0.70410617  0.67054470  0.86347830     1.02400
Cr1381     Cr  0.70137153  0.60675389  0.91525127     1.93700
Cr1382     Cr  0.68353808  0.52419090  0.87977399     1.93200
Cr1383     Cr  0.65142202  0.60886761  0.85999584     1.39100
O1384       O  0.67917795  0.58014540  0.88437798    -1.23300
O1385       O  0.60187765  0.87162063  0.59351829    -0.85600
O1386       O  0.60891528  0.93831778  0.63846272    -0.82600
C1387       C  0.61293472  0.97152193  0.62050803     0.97900
O1388       O  0.59151841  0.98505424  0.60134562    -0.82600
O1389       O  0.53550944  0.98647052  0.56699404    -0.85300
C1390       C  0.53855099  0.96407940  0.54072263     1.02400
O1391       O  0.54724866  0.92566575  0.54307500    -0.78000
O1392       O  0.56123369  0.84700815  0.56964655    -0.78200
C1393       C  0.58965375  0.85352318  0.56835232     1.02400
O1394       O  0.55381572  0.83559134  0.63870434    -0.85600
O1395       O  0.55876429  0.91147247  0.67987992    -0.82600
C1396       C  0.55695203  0.95148258  0.68651710     0.97900
O1397       O  0.55907405  0.97836005  0.66277577    -0.82600
O1398       O  0.00684715  0.96780077  0.62442063    -0.85300
C1399       C  0.98603563  0.95256843  0.60610216     1.02400
O1400       O  0.99312626  0.92636564  0.58278686    -0.78100
O1401       O  0.01141428  0.85219361  0.61415056    -0.78200
C1402       C  0.52558495  0.82926478  0.63244593     1.02400
Cr1403     Cr  0.57885545  0.89054270  0.63598494     1.93700
Cr1404     Cr  0.54814456  0.97561762  0.61445615     1.93200
Cr1405     Cr  0.52973737  0.89226045  0.58059906     1.39100
O1406       O  0.55205195  0.91938126  0.61077414    -1.23300
O1407       O  0.88308397  0.63131425  0.58620552    -0.85600
O1408       O  0.87090128  0.56539918  0.62980694    -0.82600
C1409       C  0.86608042  0.53515236  0.60935503     0.97900
O1410       O  0.88743823  0.52138758  0.59045631    -0.82600
O1411       O  0.94517628  0.51213044  0.56051574    -0.85300
C1412       C  0.94674008  0.53617683  0.53492427     1.02400
O1413       O  0.93913186  0.57485970  0.53716652    -0.78000
O1414       O  0.92525265  0.65257463  0.56298350    -0.78200
C1415       C  0.89671396  0.64691705  0.56064945     1.02400
O1416       O  0.93036648  0.66261634  0.63402053    -0.85600
O1417       O  0.92015503  0.58505875  0.67386222    -0.82600
C1418       C  0.91896478  0.54466234  0.67952176     0.97900
O1419       O  0.91610753  0.51932097  0.65501933    -0.82600
O1420       O  0.47376149  0.52526231  0.62573980    -0.85300
C1421       C  0.49573435  0.53886686  0.60794580     1.02400
O1422       O  0.49147582  0.56793873  0.58576601    -0.78100
O1423       O  0.97372849  0.63963914  0.61244395    -0.78200
C1424       C  0.95894842  0.66770780  0.62881578     1.02400
Cr1425     Cr  0.90331041  0.60987970  0.62942411     1.93700
Cr1426     Cr  0.92997212  0.52306530  0.60717727     1.93200
Cr1427     Cr  0.95503250  0.60581162  0.57631846     1.39100
O1428       O  0.92999763  0.57969884  0.60496153    -1.23300
O1429       O  0.59705149  0.13058400  0.90709003    -0.85600
O1430       O  0.61159465  0.06806340  0.85929336    -0.82600
C1431       C  0.62166429  0.04044255  0.87999178     0.97900
O1432       O  0.60350577  0.02411581  0.90134911    -0.82600
O1433       O  0.54956801  0.00233339  0.93558619    -0.85300
C1434       C  0.53862323  0.02592213  0.95827941     1.02400
O1435       O  0.54525550  0.06452601  0.95738759    -0.78000
O1436       O  0.55474213  0.14486551  0.93491829    -0.78200
C1437       C  0.58379807  0.14344469  0.93421936     1.02400
O1438       O  0.54617912  0.15956479  0.86293650    -0.85600
O1439       O  0.55711609  0.08310160  0.82178205    -0.82600
C1440       C  0.56131229  0.04296317  0.81598136     0.97900
O1441       O  0.57017360  0.01885011  0.83987251    -0.82600
O1442       O  0.01328042  0.00881349  0.86873869    -0.85300
C1443       C  0.99142705  0.02149352  0.88780910     1.02400
O1444       O  0.99570296  0.04991933  0.90992777    -0.78100
O1445       O  0.00453611  0.12951805  0.88492976    -0.78200
C1446       C  0.51774699  0.16305739  0.86957060     1.02400
Cr1447     Cr  0.57596854  0.10862393  0.86462962     1.93700
Cr1448     Cr  0.55974475  0.01869482  0.88842885     1.93200
Cr1449     Cr  0.52713230  0.09803589  0.92027827     1.39100
O1450       O  0.55340846  0.07515281  0.89065457    -1.23300
O1451       O  0.88370180  0.37159290  0.90779047    -0.85600
O1452       O  0.87165223  0.43947100  0.86457862    -0.82600
C1453       C  0.86974795  0.47122583  0.88440268     0.97900
O1454       O  0.89323987  0.48404926  0.89977711    -0.82600
O1455       O  0.95497708  0.48644310  0.92141244    -0.85300
C1456       C  0.95948323  0.46404135  0.94731263     1.02400
O1457       O  0.94761505  0.42800759  0.94885057    -0.78000
O1458       O  0.92647830  0.35015263  0.93174685    -0.78200
C1459       C  0.89764226  0.35496064  0.93317646     1.02400
O1460       O  0.92531924  0.33354043  0.85701536    -0.85600
O1461       O  0.91660907  0.41087751  0.81582015    -0.82600
C1462       C  0.91603721  0.45103044  0.80891381     0.97900
O1463       O  0.91556699  0.47744594  0.83284574    -0.82600
O1464       O  0.47470463  0.47399092  0.86230367    -0.85300
C1465       C  0.49671055  0.45781125  0.87937297     1.02400
O1466       O  0.49187131  0.42950143  0.90187732    -0.78100
O1467       O  0.97077939  0.34848502  0.87634161    -0.78200
C1468       C  0.95347883  0.32353030  0.86114317     1.02400
Cr1469     Cr  0.90181621  0.39029955  0.86263418     1.93700
Cr1470     Cr  0.93413087  0.47409620  0.87837528     1.93200
Cr1471     Cr  0.95728107  0.38961728  0.91096642     1.39100
O1472       O  0.93145796  0.41756483  0.88354311    -1.23300
C1473       C  0.95029270  0.24432842  0.86229327    -0.06000
C1474       C  0.96648056  0.28047235  0.85192859    -0.00100
C1475       C  0.50161067  0.27975891  0.84469960    -0.08600
C1476       C  0.51561688  0.23873202  0.84805048    -0.06000
C1477       C  0.49950554  0.20305376  0.86010737    -0.00100
C1478       C  0.96477713  0.20356134  0.86617802    -0.08500
C1479       C  0.94548246  0.16668221  0.87887899     0.61800
H1480       H  0.92666804  0.24905998  0.87025162     0.12500
H1481       H  0.53991865  0.23496212  0.84287706     0.12500
C1482       C  0.52036519  0.31661625  0.83110001     0.62100
F1483       F  0.91450730  0.17744588  0.87959386    -0.23100
F1484       F  0.95404223  0.15541212  0.91160219    -0.20400
F1485       F  0.94921345  0.13185694  0.85759495    -0.20100
F1486       F  0.52792305  0.34392588  0.85710791    -0.20200
F1487       F  0.50368640  0.33906262  0.80674418    -0.20500
F1488       F  0.54739065  0.30213010  0.81608609    -0.23200
C1489       C  0.93527321  0.48361352  0.71695177    -0.06000
C1490       C  0.91959976  0.52370090  0.71404778    -0.00100
C1491       C  0.90060014  0.53703364  0.74131949    -0.08600
C1492       C  0.89891549  0.51077911  0.77068832    -0.06000
C1493       C  0.91503132  0.47101919  0.77392314    -0.00100
C1494       C  0.93314913  0.45693632  0.74613364    -0.08500
C1495       C  0.44431183  0.41380222  0.74606903     0.61800
H1496       H  0.94896493  0.47281812  0.69555227     0.12500
H1497       H  0.88485948  0.52151669  0.79184656     0.12500
C1498       C  0.88128563  0.57793324  0.73897128     0.62100
F1499       F  0.45705190  0.40285246  0.71496010    -0.23100
F1500       F  0.42090958  0.38581169  0.75293818    -0.20400
F1501       F  0.46690150  0.40897512  0.77043765    -0.20100
F1502       F  0.86194603  0.57604360  0.71125146    -0.20200
F1503       F  0.90016701  0.61267796  0.73536387    -0.20500
F1504       F  0.86336550  0.58426552  0.76769272    -0.23200
C1505       C  0.54150987  0.01292109  0.72351862    -0.06000
C1506       C  0.55388087  0.97055823  0.72140323    -0.00100
C1507       C  0.56673515  0.95192889  0.75095318    -0.08600
C1508       C  0.56863161  0.97720116  0.78044867    -0.06000
C1509       C  0.55782992  0.02055190  0.78221875    -0.00100
C1510       C  0.54329464  0.03823320  0.75315287    -0.08500
C1511       C  0.52988146  0.08344074  0.75307073     0.61800
H1512       H  0.53099144  0.02684159  0.70103226     0.12500
H1513       H  0.03330334  0.96974108  0.79646983     0.12500
C1514       C  0.03134190  0.91269523  0.74452102     0.62100
F1515       F  0.51589130  0.09381083  0.72249395    -0.23100
F1516       F  0.55294900  0.11233251  0.75834878    -0.20400
F1517       F  0.50805455  0.08750911  0.77850737    -0.20100
F1518       F  0.05452405  0.88247610  0.73943964    -0.20200
F1519       F  0.00972066  0.90950548  0.71906509    -0.20500
F1520       F  0.01717380  0.90346614  0.77513614    -0.23200
C1521       C  0.50618955  0.71041445  0.64333677    -0.06000
C1522       C  0.97581617  0.70769233  0.63875885    -0.00100
C1523       C  0.96133962  0.74817902  0.64495156    -0.08600
C1524       C  0.97947552  0.78531278  0.64538109    -0.06000
C1525       C  0.50941929  0.78842212  0.64135469    -0.00100
C1526       C  0.52423989  0.74759065  0.64424327    -0.08500
C1527       C  0.55890088  0.74273063  0.64665865     0.61800
H1528       H  0.51743545  0.67918040  0.64401846     0.12500
H1529       H  0.96837642  0.81645535  0.64799443     0.12500
C1530       C  0.92689422  0.75294463  0.64991792     0.62100
F1531       F  0.56829453  0.70031398  0.65028689    -0.23100
F1532       F  0.56919727  0.76474405  0.67463560    -0.20400
F1533       F  0.57244741  0.75866553  0.61750946    -0.20100
F1534       F  0.91778130  0.72725247  0.67671427    -0.20200
F1535       F  0.91186224  0.74131557  0.62061603    -0.20500
F1536       F  0.91804051  0.79468157  0.65740388    -0.23200
C1537       C  0.79440368  0.52055941  0.91561908    -0.06000
C1538       C  0.77936178  0.52852372  0.88443780    -0.00100
C1539       C  0.79562310  0.52184148  0.85367246    -0.08600
C1540       C  0.82565294  0.50473510  0.85515477    -0.06000
C1541       C  0.84006244  0.49484786  0.88618022    -0.00100
C1542       C  0.82466258  0.50382744  0.91702920    -0.08500
C1543       C  0.83972621  0.49433837  0.95104839     0.61800
H1544       H  0.78190962  0.52642094  0.93902796     0.12500
H1545       H  0.83799745  0.49787653  0.83180106     0.12500
C1546       C  0.78149773  0.53228446  0.81938306     0.62100
F1547       F  0.82018633  0.50322225  0.97797401    -0.23100
F1548       F  0.86535012  0.51922724  0.95457239    -0.20400
F1549       F  0.84841016  0.45152339  0.95296917    -0.20100
F1550       F  0.76817442  0.57289856  0.81972857    -0.20200
F1551       F  0.75954222  0.50257178  0.81216272    -0.20500
F1552       F  0.80314070  0.53115363  0.79354975    -0.23200
C1553       C  0.57021532  0.51024353  0.84849190    -0.06000
C1554       C  0.58799217  0.50853666  0.87831409    -0.00100
C1555       C  0.57597251  0.48877901  0.90781827    -0.08600
C1556       C  0.54631796  0.47231088  0.90642032    -0.06000
C1557       C  0.52824883  0.47469226  0.87678864    -0.00100
C1558       C  0.54053782  0.49356371  0.84706041    -0.08500
C1559       C  0.52297937  0.49541854  0.81379774     0.61800
H1560       H  0.57982016  0.52500149  0.82602545     0.12500
H1561       H  0.53676677  0.45790953  0.92906887     0.12500
C1562       C  0.59385329  0.48561783  0.94086839     0.62100
F1563       F  0.54111134  0.50913692  0.78707728    -0.23100
F1564       F  0.49823118  0.52363596  0.81654664    -0.20400
F1565       F  0.51272811  0.45509529  0.80592402    -0.20100
F1566       F  0.60276565  0.52590650  0.95079503    -0.20200
F1567       F  0.61940271  0.45932821  0.93640975    -0.20500
F1568       F  0.57673697  0.46826613  0.96699070    -0.23200
C1569       C  0.94134380  0.00819398  0.91553656    -0.06000
C1570       C  0.96025045  0.00263291  0.88655956    -0.00100
C1571       C  0.94860009  0.98022997  0.85832745    -0.08600
C1572       C  0.91856981  0.96486978  0.86016097    -0.06000
C1573       C  0.89986857  0.97043281  0.88911688    -0.00100
C1574       C  0.91150983  0.99219443  0.91752894    -0.08500
C1575       C  0.89304194  0.99784122  0.95010774     0.61800
H1576       H  0.95028452  0.02485253  0.93727501     0.12500
H1577       H  0.90933257  0.94826269  0.83855484     0.12500
C1578       C  0.96742924  0.97204281  0.82644406     0.62100
F1579       F  0.91048559  0.01417073  0.97610748    -0.23100
F1580       F  0.88209363  0.95876426  0.96090011    -0.20400
F1581       F  0.86868799  0.02602928  0.94449136    -0.20100
F1582       F  0.99188174  0.94494915  0.83434136    -0.20200
F1583       F  0.97794510  0.01030636  0.81345023    -0.20500
F1584       F  0.95060709  0.95274839  0.80122931    -0.23200
C1585       C  0.65533595  0.97741305  0.87758563    -0.06000
C1586       C  0.65297237  0.02221887  0.87550087    -0.00100
C1587       C  0.67958224  0.04584391  0.86636144    -0.08600
C1588       C  0.70785945  0.02359889  0.86395347    -0.06000
C1589       C  0.71023368  0.97933710  0.86884286    -0.00100
C1590       C  0.68331257  0.95545912  0.87313744    -0.08500
C1591       C  0.68379048  0.90700614  0.87108446     0.61800
H1592       H  0.63480809  0.95928084  0.88223666     0.12500
H1593       H  0.72863736  0.04141380  0.85972251     0.12500
C1594       C  0.68114345  0.09377356  0.85948572     0.62100
F1595       F  0.65481653  0.89151035  0.86501170    -0.23100
F1596       F  0.69438336  0.88910693  0.90114709    -0.20400
F1597       F  0.70259657  0.89427031  0.84446850    -0.20100
F1598       F  0.70211854  0.11143244  0.88135373    -0.20200
F1599       F  0.65385465  0.11603029  0.86331419    -0.20500
F1600       F  0.69120896  0.10008628  0.82649239    -0.23200
C1601       C  0.72349674  0.78845299  0.85542366    -0.06000
C1602       C  0.75589228  0.78608009  0.85575106    -0.00100
C1603       C  0.77035854  0.74536398  0.85061827    -0.08600
C1604       C  0.75196611  0.70871508  0.84967219    -0.06000
C1605       C  0.71981621  0.71094851  0.85353374    -0.00100
C1606       C  0.70515336  0.75182125  0.85406493    -0.08500
C1607       C  0.67044576  0.75706021  0.85489731     0.61800
H1608       H  0.71238219  0.81931801  0.85824454     0.12500
H1609       H  0.76286675  0.67731326  0.84802641     0.12500
C1610       C  0.80497402  0.73963644  0.84792606     0.62100
F1611       F  0.66110175  0.79967490  0.85384093    -0.23100
F1612       F  0.65888710  0.73915898  0.88438326    -0.20400
F1613       F  0.65806658  0.73714334  0.82697542    -0.20100
F1614       F  0.81852887  0.75108831  0.87816793    -0.20200
F1615       F  0.81592422  0.76475490  0.82167139    -0.20500
F1616       F  0.81366804  0.69762320  0.84119505    -0.23200
C1617       C  0.80166415  0.45486220  0.60607293    -0.06000
C1618       C  0.77625802  0.48095765  0.61494420    -0.00100
C1619       C  0.78061855  0.52484033  0.62221356    -0.08600
C1620       C  0.81036994  0.54087085  0.61969927    -0.06000
C1621       C  0.83560269  0.51512225  0.60965807    -0.00100
C1622       C  0.83135060  0.47098216  0.60324697    -0.08500
C1623       C  0.85776066  0.44047036  0.59420247     0.61800
H1624       H  0.79793217  0.42141162  0.60073276     0.12500
H1625       H  0.81412915  0.57421967  0.62531885     0.12500
C1626       C  0.75420934  0.55524359  0.63149804     0.62100
F1627       F  0.84855595  0.39837680  0.59259979    -0.23100
F1628       F  0.88047248  0.44248437  0.61856552    -0.20400
F1629       F  0.86962061  0.45127662  0.56274807    -0.20100
F1630       F  0.74097132  0.54224920  0.66174201    -0.20200
F1631       F  0.73247675  0.55577497  0.60595868    -0.20500
F1632       F  0.76379679  0.59683675  0.63574608    -0.23200
C1633       C  0.55162651  0.54614266  0.60447172    -0.06000
C1634       C  0.52670726  0.51931342  0.61045290    -0.00100
C1635       C  0.53180120  0.47448517  0.61363963    -0.08600
C1636       C  0.56195054  0.45835499  0.61113084    -0.06000
C1637       C  0.58687372  0.48515037  0.60532631    -0.00100
C1638       C  0.58179375  0.52995441  0.60181321    -0.08500
C1639       C  0.60781466  0.56082691  0.59599941     0.61800
H1640       H  0.54713921  0.58020882  0.60155002     0.12500
H1641       H  0.56640343  0.42424321  0.61378348     0.12500
C1642       C  0.50576472  0.44340987  0.61858321     0.62100
F1643       F  0.59761568  0.60312612  0.59596046    -0.23100
F1644       F  0.62144143  0.55284288  0.56485097    -0.20400
F1645       F  0.62939736  0.55602336  0.62149092    -0.20100
F1646       F  0.48481479  0.44829191  0.59249068    -0.20200
F1647       F  0.49137847  0.45099440  0.64939055    -0.20500
F1648       F  0.51607750  0.40117119  0.61863063    -0.23200
C1649       C  0.69311544  0.49529438  0.76809248    -0.06000
C1650       C  0.67300610  0.53082308  0.77315595    -0.00100
C1651       C  0.65036525  0.53979233  0.74835915    -0.08600
C1652       C  0.64867197  0.51289624  0.71965174    -0.06000
C1653       C  0.66868415  0.47712279  0.71480015    -0.00100
C1654       C  0.69174411  0.46878128  0.73919884    -0.08500
C1655       C  0.71525368  0.43280360  0.73434332     0.61800
H1656       H  0.70953587  0.48754448  0.78777866     0.12500
H1657       H  0.63152423  0.51979435  0.70042363     0.12500
C1658       C  0.62746069  0.57659904  0.75278748     0.62100
F1659       F  0.73675772  0.43150761  0.76014154    -0.23100
F1660       F  0.73067059  0.43847205  0.70390392    -0.20400
F1661       F  0.70067968  0.39393849  0.73399966    -0.20100
F1662       F  0.64287556  0.61474589  0.75445435    -0.20200
F1663       F  0.61086898  0.57095321  0.78241118    -0.20500
F1664       F  0.60692697  0.57949247  0.72608072    -0.23200
C1665       C  0.89877672  0.96932870  0.59857841    -0.06000
C1666       C  0.89468038  0.00826081  0.61576726    -0.00100
C1667       C  0.91999030  0.02581597  0.63309970    -0.08600
C1668       C  0.94905202  0.00621968  0.62927375    -0.06000
C1669       C  0.95369438  0.96854391  0.61041537    -0.00100
C1670       C  0.92769825  0.94843583  0.59622258    -0.08500
C1671       C  0.92980874  0.90473792  0.57952196     0.61800
H1672       H  0.87903927  0.95553866  0.58652545     0.12500
H1673       H  0.96862218  0.02096062  0.64086835     0.12500
C1674       C  0.91658610  0.06403303  0.65675960     0.62100
F1675       F  0.90110359  0.88860324  0.57299456    -0.23100
F1676       F  0.94492216  0.87597749  0.60083318    -0.20400
F1677       F  0.94532232  0.90755789  0.54894305    -0.20100
F1678       F  0.89230560  0.05798430  0.67887380    -0.20200
F1679       F  0.91162431  0.10120085  0.63817364    -0.20500
F1680       F  0.94259799  0.06942507  0.67623713    -0.23200
C1681       C  0.64572539  0.03252055  0.60268601    -0.06000
C1682       C  0.64221675  0.99580382  0.62331878    -0.00100
C1683       C  0.66631443  0.98443352  0.64647131    -0.08600
C1684       C  0.69353192  0.00772424  0.64550632    -0.06000
C1685       C  0.69767373  0.04214939  0.62315636    -0.00100
C1686       C  0.67298482  0.05609681  0.60234051    -0.08500
C1687       C  0.67583779  0.09444660  0.57877839     0.61800
H1688       H  0.62715388  0.04217487  0.58595126     0.12500
H1689       H  0.71272951  0.99799419  0.66137788     0.12500
C1690       C  0.66414622  0.94806920  0.67225341     0.62100
F1691       F  0.64881379  0.10346790  0.56155496    -0.23100
F1692       F  0.69864606  0.08659049  0.55500890    -0.20400
F1693       F  0.68299968  0.13018354  0.59744950    -0.20100
F1694       F  0.66160407  0.90937121  0.65570791    -0.20200
F1695       F  0.63905035  0.95523821  0.69317463    -0.20500
F1696       F  0.68976055  0.94488774  0.69290858    -0.23200
C1697       C  0.81206050  0.96899959  0.71677872    -0.06000
C1698       C  0.81243742  0.01442801  0.71697616    -0.00100
C1699       C  0.81444062  0.03526954  0.74847856    -0.08600
C1700       C  0.81580647  0.01019421  0.77837366    -0.06000
C1701       C  0.81579457  0.96458293  0.77855255    -0.00100
C1702       C  0.81373724  0.94370481  0.74686025    -0.08500
C1703       C  0.81328091  0.89528615  0.74458635     0.61800
H1704       H  0.81053147  0.95318384  0.69246433     0.12500
H1705       H  0.81696174  0.02693291  0.80226510     0.12500
C1706       C  0.81448472  0.08379574  0.75076712     0.62100
F1707       F  0.81209442  0.88149166  0.71126308    -0.23100
F1708       F  0.78774124  0.88025140  0.76142744    -0.20400
F1709       F  0.83953551  0.87776324  0.75917084    -0.20100
F1710       F  0.78930157  0.10110873  0.73389672    -0.20200
F1711       F  0.84105874  0.09901498  0.73622595    -0.20500
F1712       F  0.81321453  0.09778191  0.78406816    -0.23200
C1713       C  0.75861152  0.28911155  0.65126645    -0.06000
C1714       C  0.72662340  0.28874949  0.64566442    -0.00100
C1715       C  0.71210638  0.24836656  0.64437781    -0.08600
C1716       C  0.73053495  0.21054726  0.64501152    -0.06000
C1717       C  0.76269602  0.21139552  0.64687310    -0.00100
C1718       C  0.77688687  0.25110610  0.65172418    -0.08500
C1719       C  0.81141047  0.25327982  0.65517331     0.61800
H1720       H  0.76959809  0.31977941  0.65299799     0.12500
H1721       H  0.72009607  0.17979236  0.64128236     0.12500
C1722       C  0.67766873  0.24469180  0.63979550     0.62100
F1723       F  0.82079145  0.29459019  0.66125234    -0.23100
F1724       F  0.82540933  0.23901836  0.62562506    -0.20400
F1725       F  0.82097943  0.22760708  0.68203808    -0.20100
F1726       F  0.66889565  0.26288785  0.60911153    -0.20200
F1727       F  0.66244230  0.26524068  0.66613648    -0.20500
F1728       F  0.66858728  0.20250192  0.63988262    -0.23200
C1729       C  0.99201746  0.46076325  0.48160775    -0.06000
C1730       C  0.52190203  0.48216623  0.47730334    -0.00100
C1731       C  0.01939391  0.52765093  0.48715879    -0.08600
C1732       C  0.99290175  0.54574822  0.50192996    -0.06000
C1733       C  0.96638639  0.52169133  0.50711774    -0.00100
C1734       C  0.96543081  0.47915727  0.49559104    -0.08500
C1735       C  0.93683411  0.45241893  0.49710058     0.61800
H1736       H  0.49329501  0.42724707  0.47299538     0.12500
H1737       H  0.99349951  0.57799344  0.51184978     0.12500
C1738       C  0.55395956  0.54875811  0.48580885     0.62100
F1739       F  0.93109791  0.43609672  0.46519934    -0.23100
F1740       F  0.91112761  0.47592290  0.50705395    -0.20400
F1741       F  0.43810446  0.43723086  0.53488877    -0.20100
F1742       F  0.05532819  0.56229210  0.45111845    -0.20200
F1743       F  0.57767507  0.52389760  0.49922048    -0.20500
F1744       F  0.04566526  0.59189665  0.50175133    -0.23200
C1745       C  0.63556531  0.32754323  0.47016213    -0.06000
C1746       C  0.60355875  0.33335976  0.46903232    -0.00100
C1747       C  0.58737364  0.33276808  0.50076005    -0.08600
C1748       C  0.60408039  0.33670593  0.53135019    -0.01200
C1749       C  0.63632017  0.33599260  0.53217208    -0.00100
C1750       C  0.65214383  0.32659338  0.50109314    -0.08500
C1751       C  0.68613447  0.31476096  0.49988683     0.61800
H1752       H  0.64770536  0.32394216  0.44633127     0.12500
H1753       H  0.59180015  0.34089041  0.55509048     0.12500
C1754       C  0.55290247  0.32647832  0.50326852     0.62100
F1755       F  0.69504119  0.30005239  0.46815366    -0.23100
F1756       F  0.69240876  0.28231188  0.52309836    -0.20400
F1757       F  0.70357589  0.34984396  0.50713588    -0.20100
F1758       F  0.54496257  0.29109120  0.48454287    -0.20200
F1759       F  0.53694734  0.36208350  0.49153005    -0.20500
F1760       F  0.54357377  0.31934693  0.53646303    -0.23200
C1761       C  0.97573862  0.28619299  0.36643308    -0.06000
C1762       C  0.51028954  0.28482870  0.35593173    -0.00100
C1763       C  0.52411203  0.24438803  0.34789480    -0.08600
C1764       C  0.50523572  0.20832281  0.34494259    -0.06000
C1765       C  0.97146512  0.20985541  0.35473881    -0.00100
C1766       C  0.95738159  0.24950773  0.36390465    -0.08500
C1767       C  0.92342290  0.25298136  0.37247027     0.61800
H1768       H  0.96513540  0.31592335  0.37484536     0.12500
H1769       H  0.51563847  0.17729413  0.33997713     0.12500
C1770       C  0.55862941  0.23811747  0.34405587     0.62100
F1771       F  0.91436760  0.29443004  0.38061970    -0.23100
F1772       F  0.91685865  0.22700723  0.39999728    -0.20400
F1773       F  0.90641892  0.24058262  0.34476317    -0.20100
F1774       F  0.57291806  0.24677340  0.37450318    -0.20200
F1775       F  0.56941330  0.26500219  0.31885215    -0.20500
F1776       F  0.56671353  0.19657045  0.33509545    -0.23200
C1777       C  0.00182057  0.94288892  0.49199676    -0.06000
C1778       C  0.52353883  0.97963688  0.50983669    -0.00100
C1779       C  0.51940409  0.02398596  0.50372981    -0.08600
C1780       C  0.49389391  0.03793082  0.48499738    -0.06000
C1781       C  0.97348221  0.00258485  0.46771714    -0.00100
C1782       C  0.97647436  0.95798557  0.47360184    -0.08500
C1783       C  0.95234255  0.92677377  0.46211918     0.61800
H1784       H  0.00364694  0.90918883  0.49853726     0.12500
H1785       H  0.49075967  0.07196761  0.48015642     0.12500
C1786       C  0.54115306  0.05747897  0.51671604     0.62100
F1787       F  0.95578430  0.88735050  0.47810134    -0.23100
F1788       F  0.95463679  0.92018948  0.42750525    -0.20400
F1789       F  0.92335748  0.94289475  0.46984253    -0.20100
F1790       F  0.56804967  0.03960120  0.52955847    -0.20200
F1791       F  0.52669449  0.08128223  0.54183365    -0.20500
F1792       F  0.54913582  0.08462808  0.49042033    -0.23200
C1793       C  0.89703565  0.14183491  0.49179276    -0.06000
C1794       C  0.88059162  0.14491590  0.46096248    -0.00100
C1795       C  0.84855671  0.15375282  0.46311636    -0.08600
C1796       C  0.83410248  0.15484227  0.49546486    -0.06000
C1797       C  0.84997074  0.14670323  0.52623994    -0.00100
C1798       C  0.88251058  0.14234844  0.52421184    -0.08500
C1799       C  0.90199912  0.13409099  0.55538966     0.61800
H1800       H  0.92153202  0.13576699  0.49034109     0.12500
H1801       H  0.80945889  0.15958966  0.49671748     0.12500
C1802       C  0.82921994  0.16101488  0.43155892     0.62100
F1803       F  0.93304659  0.13633409  0.54823623    -0.23100
F1804       F  0.89645607  0.09352012  0.56747729    -0.20400
F1805       F  0.89523056  0.16409685  0.58011744    -0.20100
F1806       F  0.82542685  0.12254289  0.41512330    -0.20200
F1807       F  0.84335437  0.18965444  0.40993666    -0.20500
F1808       F  0.80041703  0.17777586  0.43939210    -0.23200
C1809       C  0.63925788  0.64661993  0.99293082    -0.06000
C1810       C  0.62276495  0.64786540  0.96205820    -0.00100
C1811       C  0.59020981  0.64982223  0.96417566    -0.08600
C1812       C  0.57577930  0.64678665  0.99644219    -0.06000
C1813       C  0.59223505  0.64128488  0.02716965    -0.00100
C1814       C  0.62481007  0.64283133  0.02524009    -0.08500
C1815       C  0.64465624  0.63733011  0.05656487     0.61800
H1816       H  0.66404907  0.64569722  0.99150761     0.12500
H1817       H  0.55097631  0.64655638  0.99761658     0.12500
C1818       C  0.57037154  0.65431388  0.93266833     0.62100
F1819       F  0.64052107  0.59707850  0.07022112    -0.23100
F1820       F  0.63683976  0.66818217  0.08028453    -0.20400
F1821       F  0.67555791  0.64119252  0.04920981    -0.20100
F1822       F  0.57067748  0.61611102  0.91509542    -0.20200
F1823       F  0.58124819  0.68660002  0.91194263    -0.20500
F1824       F  0.54019017  0.66463711  0.94077774    -0.23200
C1825       C  0.52205692  0.51838320  0.99391011    -0.06000
C1826       C  0.52776472  0.48962060  0.02057553    -0.00100
C1827       C  0.01974966  0.45101311  0.01544613    -0.08600
C1828       C  0.99689390  0.44270619  0.99164867    -0.06000
C1829       C  0.98430737  0.47551650  0.97084568    -0.00100
C1830       C  0.99882688  0.51601680  0.96975615    -0.08500
C1831       C  0.48534357  0.55368193  0.95318101     0.61800
H1832       H  0.53455310  0.54805058  0.99372292     0.12500
H1833       H  0.98818457  0.41073076  0.99003334     0.12500
C1834       C  0.03131450  0.41618644  0.03946051     0.62100
F1835       F  0.50100913  0.59007838  0.96195243    -0.23100
F1836       F  0.95663642  0.56064580  0.95245668    -0.20400
F1837       F  0.49031494  0.54681133  0.91892853    -0.20100
F1838       F  0.02116109  0.42437457  0.07214490    -0.20200
F1839       F  0.55415145  0.40868652  0.04626479    -0.20500
F1840       F  0.02116656  0.37626021  0.03012611    -0.23200
C1841       C  0.58386707  0.49089315  0.22553739    -0.06000
C1842       C  0.55621339  0.51449730  0.22163925    -0.00100
C1843       C  0.53204751  0.50769155  0.24512703    -0.08600
C1844       C  0.53667510  0.47813278  0.27204160    -0.06000
C1845       C  0.56448439  0.45499300  0.27624392    -0.00100
C1846       C  0.58856268  0.46171762  0.25273558    -0.08500
C1847       C  0.61925091  0.43856834  0.25693791     0.61800
H1848       H  0.60165548  0.49478514  0.20661340     0.12500
H1849       H  0.01825166  0.47151575  0.29179223     0.12500
C1850       C  0.00066352  0.52785404  0.24172151     0.62100
F1851       F  0.63923282  0.44765867  0.23055975    -0.23100
F1852       F  0.61487893  0.39484849  0.25766741    -0.20400
F1853       F  0.63273899  0.45073082  0.28702017    -0.20100
F1854       F  0.98573209  0.51543291  0.21261658    -0.20200
F1855       F  0.00576326  0.57137919  0.24008427    -0.20500
F1856       F  0.98140931  0.52019177  0.26902577    -0.23200
C1857       C  0.89405940  0.99910737  0.26312115    -0.06000
C1858       C  0.91616946  0.03121202  0.26673207    -0.00100
C1859       C  0.93989930  0.03368560  0.24236512    -0.08600
C1860       C  0.94080838  0.00375896  0.21550196    -0.06000
C1861       C  0.91935300  0.97063619  0.21283083    -0.00100
C1862       C  0.89534859  0.96864891  0.23688146    -0.08500
C1863       C  0.87117899  0.93452991  0.23479444     0.61800
H1864       H  0.87658442  0.99640298  0.28258151     0.12500
H1865       H  0.95827418  0.00620138  0.19597536     0.12500
C1866       C  0.96437462  0.06714415  0.24529835     0.62100
F1867       F  0.84973330  0.93820732  0.26071563    -0.23100
F1868       F  0.88515075  0.89446070  0.23719972    -0.20400
F1869       F  0.85579107  0.93798258  0.20421575    -0.20100
F1870       F  0.48298525  0.05628866  0.27687398    -0.20200
F1871       F  0.95067218  0.10749233  0.24551883    -0.20500
F1872       F  0.98492433  0.06526499  0.21841591    -0.23200
C1873       C  0.95904914  0.74628695  0.15199518    -0.06000
C1874       C  0.97576400  0.78396599  0.14761410    -0.00100
C1875       C  0.51163850  0.78431028  0.14377969    -0.08600
C1876       C  0.52609732  0.74337303  0.14306582    -0.06000
C1877       C  0.50942801  0.70582465  0.14668543    -0.00100
C1878       C  0.97365418  0.70555916  0.15432623    -0.08500
C1879       C  0.95370140  0.66765801  0.16217862     0.61800
H1880       H  0.93419338  0.74823544  0.15219923     0.12500
H1881       H  0.55068721  0.74076726  0.13904402     0.12500
C1882       C  0.53274798  0.82206229  0.14615106     0.62100
F1883       F  0.93762626  0.67551724  0.19195038    -0.23100
F1884       F  0.97051728  0.63006006  0.16669069    -0.20400
F1885       F  0.93298417  0.66237981  0.13615498    -0.20100
F1886       F  0.51739385  0.86040427  0.15226601    -0.20200
F1887       F  0.54960920  0.82513549  0.11651015    -0.20500
F1888       F  0.55288037  0.81516282  0.17283705    -0.23200
C1889       C  0.50034661  0.96993450  0.96719354    -0.06000
C1890       C  0.51103802  0.01061158  0.97649883    -0.00100
C1891       C  0.01008837  0.02206183  0.00618635    -0.08600
C1892       C  0.98289246  0.00846149  0.02126088    -0.06000
C1893       C  0.96732099  0.97149120  0.01050665    -0.00100
C1894       C  0.47228244  0.95452093  0.97857653    -0.08500
C1895       C  0.46124743  0.91351417  0.96302331     0.61800
H1896       H  0.51344110  0.95005468  0.94967326     0.12500
H1897       H  0.97445231  0.02641303  0.04290207     0.12500
C1898       C  0.02662081  0.05982999  0.02132777     0.62100
F1899       F  0.43131043  0.90483808  0.97190168    -0.23100
F1900       F  0.48054597  0.88010504  0.97288946    -0.20400
F1901       F  0.46234013  0.91693079  0.92798140    -0.20100
F1902       F  0.01993278  0.09660660  0.00282267    -0.20200
F1903       F  0.05799119  0.05198375  0.02127699    -0.20500
F1904       F  0.01774036  0.06698773  0.05463128    -0.23200
C1905       C  0.84707418  0.83407622  0.03324097    -0.06000
C1906       C  0.87917177  0.82938207  0.03357627    -0.00100
C1907       C  0.89387899  0.81837007  0.00226043    -0.08600
C1908       C  0.87737574  0.82348538  0.97141049    -0.06000
C1909       C  0.84563758  0.83273669  0.97082667    -0.00100
C1910       C  0.82983266  0.83264821  0.00285444    -0.08500
C1911       C  0.79512540  0.83007736  0.00596981     0.61800
H1912       H  0.83534239  0.83942639  0.05718065     0.12500
H1913       H  0.88933210  0.81999750  0.94739236     0.12500
C1914       C  0.92605480  0.79882670  0.00115416     0.62100
F1915       F  0.78601595  0.82189087  0.03909310    -0.23100
F1916       F  0.78472241  0.79699317  0.98617686    -0.20400
F1917       F  0.78120187  0.86808721  0.99602757    -0.20100
F1918       F  0.92816148  0.76527397  0.02421372    -0.20200
F1919       F  0.94752957  0.82881467  0.00904786    -0.20500
F1920       F  0.93319790  0.78274864  0.96932464    -0.23200
C1921       C  0.87452281  0.33594577  0.02767973    -0.06000
C1922       C  0.84242599  0.33730697  0.02556771    -0.00100
C1923       C  0.82928033  0.33435982  0.99259247    -0.08600
C1924       C  0.84788212  0.34009014  0.96344896    -0.06000
C1925       C  0.88001262  0.34272023  0.96531132    -0.00100
C1926       C  0.89360313  0.33641810  0.99825894    -0.08500
C1927       C  0.92794492  0.33113749  0.00327627     0.61800
H1928       H  0.88467085  0.33659621  0.05272556     0.12500
H1929       H  0.83699836  0.34171771  0.93874091     0.12500
C1930       C  0.79591551  0.32389104  0.98676602     0.62100
F1931       F  0.93539056  0.32110032  0.03661403    -0.23100
F1932       F  0.94209113  0.36873016  0.99508946    -0.20400
F1933       F  0.93931494  0.29832589  0.98309251    -0.20100
F1934       F  0.78008481  0.36017814  0.97590067    -0.20200
F1935       F  0.78200490  0.30779222  0.01564970    -0.20500
F1936       F  0.79405453  0.29290049  0.96191317    -0.23200
C1937       C  0.72533939  0.54590864  0.00517127    -0.06000
C1938       C  0.71256121  0.51652130  0.98250076    -0.00100
C1939       C  0.72510406  0.47446071  0.98064123    -0.08600
C1940       C  0.75294202  0.46585537  0.99637743    -0.06000
C1941       C  0.76315720  0.49235620  0.02229610    -0.00100
C1942       C  0.74992142  0.53367534  0.02637008    -0.08500
C1943       C  0.76148826  0.56401563  0.05310828     0.61800
H1944       H  0.71620975  0.57840064  0.00599188     0.12500
H1945       H  0.76314937  0.43407017  0.99385575     0.12500
C1946       C  0.70953135  0.43736867  0.96342568     0.62100
F1947       F  0.74757135  0.60414700  0.05046124    -0.23100
F1948       F  0.79279014  0.56861182  0.04921594    -0.20400
F1949       F  0.75547587  0.54798427  0.08520924    -0.20100
F1950       F  0.72433321  0.42806250  0.93313720    -0.20200
F1951       F  0.67882234  0.44613188  0.95732535    -0.20500
F1952       F  0.71104301  0.40148935  0.98424551    -0.23200
C1953       C  0.93952587  0.48421771  0.14056704    -0.06000
C1954       C  0.94376183  0.51872605  0.11818600    -0.00100
C1955       C  0.91998415  0.53129938  0.09554813    -0.08600
C1956       C  0.89233590  0.50898840  0.09668412    -0.06000
C1957       C  0.88853059  0.47378736  0.11845749    -0.00100
C1958       C  0.91229590  0.46120109  0.14105570    -0.08500
C1959       C  0.90886213  0.42429047  0.16602857     0.61800
H1960       H  0.95827398  0.47467464  0.15714545     0.12500
H1961       H  0.87362927  0.51812163  0.07990927     0.12500
C1962       C  0.92424500  0.56637119  0.06917217     0.62100
F1963       F  0.93434595  0.41906521  0.18666226    -0.23100
F1964       F  0.90501244  0.38648283  0.14864692    -0.20400
F1965       F  0.88376264  0.43196109  0.18676284    -0.20100
F1966       F  0.94919029  0.55640995  0.04868839    -0.20200
F1967       F  0.92902451  0.60485676  0.08514591    -0.20500
F1968       F  0.89881128  0.57148078  0.04846031    -0.23200
C1969       C  0.68964904  0.48839502  0.14652421    -0.06000
C1970       C  0.69354870  0.45134880  0.12672913    -0.00100
C1971       C  0.66860636  0.43636902  0.10746386    -0.08600
C1972       C  0.64058650  0.45948944  0.10870270    -0.06000
C1973       C  0.63764440  0.49821551  0.12642309    -0.00100
C1974       C  0.66241097  0.51301568  0.14587381    -0.08500
C1975       C  0.66050691  0.55495088  0.16525001     0.61800
H1976       H  0.70907741  0.49957181  0.16080640     0.12500
H1977       H  0.62107487  0.44870187  0.09436520     0.12500
C1978       C  0.67200432  0.39825174  0.08389196     0.62100
F1979       F  0.68648566  0.56133590  0.18454065    -0.23100
F1980       F  0.63556552  0.55515998  0.18697339    -0.20400
F1981       F  0.65755869  0.58880299  0.14262168    -0.20100
F1982       F  0.67990297  0.36199924  0.10241413    -0.20200
F1983       F  0.69452752  0.40597461  0.05992931    -0.20500
F1984       F  0.64507070  0.39028585  0.06674532    -0.23200
C1985       C  0.79519438  0.03691843  0.10947131    -0.06000
C1986       C  0.77003303  0.01010243  0.11386806    -0.00100
C1987       C  0.77524806  0.96519552  0.11702301    -0.08600
C1988       C  0.80562953  0.94899302  0.11540704    -0.06000
C1989       C  0.83072325  0.97583508  0.11049516    -0.00100
C1990       C  0.82552468  0.02078067  0.10804269    -0.08500
C1991       C  0.85170402  0.05198279  0.10515307     0.61800
H1992       H  0.79081057  0.07106717  0.10704280     0.12500
H1993       H  0.81008477  0.91485839  0.11770754     0.12500
C1994       C  0.74906606  0.93417931  0.12095362     0.62100
F1995       F  0.84145863  0.09417278  0.10716544    -0.23100
F1996       F  0.86651914  0.04688270  0.07428098    -0.20400
F1997       F  0.87229914  0.04476803  0.13132762    -0.20100
F1998       F  0.72864985  0.93961081  0.09437238    -0.20200
F1999       F  0.73403185  0.94136315  0.15145278    -0.20500
F2000       F  0.75934122  0.89191922  0.12084461    -0.23200
C2001       C  0.52424022  0.01601883  0.12270059    -0.06000
C2002       C  0.52184258  0.97829405  0.10368190    -0.00100
C2003       C  0.54810839  0.96266064  0.08549535    -0.08600
C2004       C  0.57601592  0.98325904  0.08982838    -0.06000
C2005       C  0.57859843  0.02033017  0.10943522    -0.00100
C2006       C  0.55178076  0.03839456  0.12491731    -0.08500
C2007       C  0.55126392  0.08173025  0.14245909     0.61800
H2008       H  0.50399673  0.02863076  0.13546030     0.12500
H2009       H  0.59632635  0.97039298  0.07738491     0.12500
C2010       C  0.54738563  0.92526280  0.06083605     0.62100
F2011       F  0.52169230  0.09567826  0.15015775    -0.23100
F2012       F  0.56403925  0.11209825  0.12135759    -0.20400
F2013       F  0.56740963  0.07942067  0.17251703    -0.20100
F2014       F  0.52794417  0.93531695  0.03416400    -0.20200
F2015       F  0.53753346  0.88894149  0.07727652    -0.20500
F2016       F  0.57595826  0.91563253  0.04703899    -0.23200
C2017       C  0.75328067  0.20075707  0.15071599    -0.06000
C2018       C  0.72112209  0.20417724  0.14659220    -0.00100
C2019       C  0.70709276  0.24576450  0.14679145    -0.08600
C2020       C  0.72605626  0.28187653  0.14711555    -0.06000
C2021       C  0.75822181  0.27805434  0.14729420    -0.00100
C2022       C  0.77206792  0.23704865  0.15089558    -0.08500
C2023       C  0.80665425  0.23184056  0.15303823     0.61800
H2024       H  0.76391133  0.16911592  0.15160436     0.12500
H2025       H  0.71594362  0.31368723  0.14451376     0.12500
C2026       C  0.67255850  0.25258445  0.14420240     0.62100
F2027       F  0.81577889  0.18933551  0.15667300    -0.23100
F2028       F  0.81710669  0.25408886  0.18081599    -0.20400
F2029       F  0.82012310  0.24783424  0.12386125    -0.20100
F2030       F  0.65820832  0.23154771  0.17066900    -0.20200
F2031       F  0.66225743  0.23723150  0.11348586    -0.20500
F2032       F  0.66404229  0.29543976  0.14614239    -0.23200
C2033       C  0.58380652  0.16602513  0.99589162    -0.06000
C2034       C  0.60113809  0.15421399  0.96676310    -0.00100
C2035       C  0.63348983  0.14919565  0.97121701    -0.08600
C2036       C  0.64622104  0.15163280  0.00424767    -0.06000
C2037       C  0.62835076  0.15892880  0.03362148    -0.00100
C2038       C  0.59680987  0.16968920  0.02875861    -0.08500
C2039       C  0.57594504  0.18718920  0.05651086     0.61800
H2040       H  0.55936585  0.17214744  0.99326174     0.12500
H2041       H  0.67048565  0.14503311  0.00754184     0.12500
C2042       C  0.65482767  0.13918155  0.94187473     0.62100
F2043       F  0.56297958  0.22572462  0.04568257    -0.23100
F2044       F  0.59115178  0.19491768  0.08649548    -0.20400
F2045       F  0.55270488  0.15873516  0.06269911    -0.20100
F2046       F  0.65032665  0.16921323  0.91630682    -0.20200
F2047       F  0.64905942  0.09857582  0.93025049    -0.20500
F2048       F  0.68541662  0.14010103  0.95116003    -0.23200
C2049       C  0.73318842  0.96194098  0.98222600    -0.06000
C2050       C  0.75963667  0.98571526  0.97604937    -0.00100
C2051       C  0.76095651  0.02866808  0.98681026    -0.08600
C2052       C  0.73568634  0.04614472  0.00429273    -0.06000
C2053       C  0.70960947  0.02188552  0.01132636    -0.00100
C2054       C  0.70769452  0.97979173  0.99892307    -0.08500
C2055       C  0.67918881  0.95302725  0.00199737     0.61800
H2056       H  0.73174181  0.92971031  0.97231724     0.12500
H2057       H  0.73696240  0.07817868  0.01451661     0.12500
C2058       C  0.78937815  0.05517020  0.98127759     0.62100
F2059       F  0.67107643  0.93875580  0.97011107    -0.23100
F2060       F  0.65432386  0.97575829  0.01512367    -0.20400
F2061       F  0.68533513  0.91797837  0.02270229    -0.20100
F2062       F  0.79226306  0.06586274  0.94730403    -0.20200
F2063       F  0.81513030  0.03198141  0.99156702    -0.20500
F2064       F  0.78809153  0.09279900  0.99968988    -0.23200
C2065       C  0.83592288  0.65224344  0.48897234    -0.06000
C2066       C  0.85435398  0.65020529  0.45940567    -0.00100
C2067       C  0.88659741  0.65401982  0.46364007    -0.08600
C2068       C  0.89897989  0.65588338  0.49695720    -0.06000
C2069       C  0.88066623  0.65395868  0.52666123    -0.00100
C2070       C  0.84825409  0.65404056  0.52223917    -0.08500
C2071       C  0.82632619  0.65506475  0.55226410     0.61800
H2072       H  0.81134103  0.64999950  0.48607134     0.12500
H2073       H  0.92363002  0.65645919  0.49991305     0.12500
C2074       C  0.90824380  0.65540945  0.43339741     0.62100
F2075       F  0.79631652  0.66302638  0.54225031    -0.23100
F2076       F  0.83430054  0.68716572  0.57440443    -0.20400
F2077       F  0.82734929  0.61599153  0.56888327    -0.20100
F2078       F  0.89750130  0.68500672  0.40973543    -0.20200
F2079       F  0.91045762  0.61539695  0.41874794    -0.20500
F2080       F  0.93746154  0.66715894  0.44272003    -0.23200
C2081       C  0.74555919  0.53777622  0.48660107    -0.06000
C2082       C  0.77138708  0.51199662  0.47884233    -0.00100
C2083       C  0.77168389  0.46802466  0.48749205    -0.08600
C2084       C  0.74540144  0.45078226  0.50213998    -0.06000
C2085       C  0.71972003  0.47669296  0.51017015    -0.00100
C2086       C  0.71924939  0.52048567  0.50104369    -0.08500
C2087       C  0.69134295  0.54979986  0.50540372     0.61800
H2088       H  0.74480659  0.57109608  0.47862872     0.12500
H2089       H  0.74604173  0.41745480  0.51006426     0.12500
C2090       C  0.79935395  0.43856447  0.48207998     0.62100
F2091       F  0.68506455  0.57053865  0.47495255    -0.23100
F2092       F  0.69731489  0.58007217  0.52986189    -0.20400
F2093       F  0.66543005  0.52775662  0.51471676    -0.20100
F2094       F  0.82580262  0.46106214  0.47587621    -0.20200
F2095       F  0.79393314  0.41193597  0.45491907    -0.20500
F2096       F  0.80435511  0.41373656  0.51087364    -0.23200
C2097       C  0.92821898  0.53697956  0.36951339    -0.06000
C2098       C  0.90389085  0.50971107  0.37748144    -0.00100
C2099       C  0.91007376  0.46542945  0.38279773    -0.08600
C2100       C  0.94059230  0.45050126  0.38081593    -0.06000
C2101       C  0.96500971  0.47812449  0.37455545    -0.00100
C2102       C  0.95888077  0.52220992  0.36867587    -0.08500
C2103       C  0.98442792  0.55394945  0.36342045     0.61800
H2104       H  0.92304977  0.57050846  0.36468335     0.12500
H2105       H  0.94585860  0.41689910  0.38539806     0.12500
C2106       C  0.88489545  0.43373098  0.39022746     0.62100
F2107       F  0.97319916  0.59556615  0.36008658    -0.23100
F2108       F  0.00072018  0.54400173  0.33423666    -0.20400
F2109       F  0.00400636  0.55254697  0.39099576    -0.20100
F2110       F  0.86267706  0.43651943  0.36526052    -0.20200
F2111       F  0.87180556  0.44245399  0.42154486    -0.20500
F2112       F  0.89602223  0.39188017  0.39109197    -0.23200
C2113       C  0.70770588  0.47558187  0.40218607    -0.06000
C2114       C  0.71359424  0.50821151  0.37856207    -0.00100
C2115       C  0.69056158  0.52177818  0.35552957    -0.08600
C2116       C  0.66176602  0.50235818  0.35721108    -0.06000
C2117       C  0.65580661  0.46994658  0.38103600    -0.00100
C2118       C  0.67910605  0.45572868  0.40350485    -0.08500
C2119       C  0.67376174  0.41915517  0.42805816     0.61800
H2120       H  0.72576621  0.46579335  0.41961573     0.12500
H2121       H  0.64356508  0.51254225  0.34011531     0.12500
C2122       C  0.69630406  0.55736694  0.33015490     0.62100
F2123       F  0.69917305  0.41042099  0.44809778    -0.23100
F2124       F  0.66746350  0.38280900  0.40976231    -0.20400
F2125       F  0.64921626  0.42910150  0.44915563    -0.20100
F2126       F  0.72162879  0.54701976  0.31033871    -0.20200
F2127       F  0.70167768  0.59474475  0.34747819    -0.20500
F2128       F  0.67149062  0.56445250  0.30884100    -0.23200
C2129       C  0.83129733  0.49524614  0.21975060    -0.06000
C2130       C  0.80987915  0.46211228  0.21919912    -0.00100
C2131       C  0.78849100  0.45883302  0.24608427    -0.08600
C2132       C  0.79007984  0.48773394  0.27335978    -0.06000
C2133       C  0.81180263  0.52051753  0.27429390    -0.00100
C2134       C  0.83270531  0.52447335  0.24698681    -0.08500
C2135       C  0.85652421  0.55906160  0.24700593     0.61800
H2136       H  0.84640683  0.49885959  0.19806463     0.12500
H2137       H  0.77468175  0.48431415  0.29481646     0.12500
C2138       C  0.76435871  0.42450730  0.24595417     0.62100
F2139       F  0.87451763  0.55794051  0.21795357    -0.23100
F2140       F  0.87554597  0.55376413  0.27483608    -0.20400
F2141       F  0.84198270  0.59879163  0.24863446    -0.20100
F2142       F  0.77850912  0.38463073  0.24300044    -0.20200
F2143       F  0.74467941  0.43100478  0.21884137    -0.20500
F2144       F  0.74701062  0.42479227  0.27549393    -0.23200
C2145       C  0.78839258  0.99077878  0.35253200    -0.06000
C2146       C  0.78606117  0.95326647  0.37197143    -0.00100
C2147       C  0.81230804  0.93680445  0.38902580    -0.08600
C2148       C  0.83942474  0.96065720  0.38804294    -0.06000
C2149       C  0.84121653  0.00003070  0.37039314    -0.00100
C2150       C  0.81527359  0.01456969  0.35105402    -0.08500
C2151       C  0.81484880  0.05510646  0.32916623     0.61800
H2152       H  0.76806100  0.00243725  0.33942255     0.12500
H2153       H  0.85937412  0.94886508  0.40175742     0.12500
C2154       C  0.81150383  0.89516986  0.40902976     0.62100
F2155       F  0.78715774  0.06157848  0.31256912    -0.23100
F2156       F  0.83737216  0.05226255  0.30442924    -0.20400
F2157       F  0.81940328  0.09057997  0.34920175    -0.20100
F2158       F  0.80378239  0.86219566  0.38764243    -0.20200
F2159       F  0.79008548  0.89852032  0.43493390    -0.20500
F2160       F  0.83966131  0.88477012  0.42337627    -0.23200
C2161       C  0.53531973  0.97983115  0.35569275    -0.06000
C2162       C  0.53125760  0.02109764  0.36909823    -0.00100
C2163       C  0.55737692  0.04303843  0.38096426    -0.08600
C2164       C  0.58585674  0.02107745  0.38214270    -0.06000
C2165       C  0.58944215  0.97876667  0.37087143    -0.00100
C2166       C  0.56406687  0.95848282  0.35564840    -0.08500
C2167       C  0.56714834  0.91527019  0.33823215     0.61800
H2168       H  0.51546648  0.96364915  0.34606494     0.12500
H2169       H  0.60561412  0.03678728  0.39252048     0.12500
C2170       C  0.55582125  0.08979332  0.39134305     0.62100
F2171       F  0.54096816  0.90550843  0.32029423    -0.23100
F2172       F  0.57210375  0.88318937  0.36199898    -0.20400
F2173       F  0.59133761  0.91571127  0.31541957    -0.20100
F2174       F  0.54141632  0.09408134  0.42247108    -0.20200
F2175       F  0.53987338  0.11333314  0.36713443    -0.20500
F2176       F  0.58472773  0.10695100  0.39401608    -0.23200
C2177       C  0.64590333  0.98827807  0.26862259    -0.06000
C2178       C  0.67375010  0.96645689  0.27548908    -0.00100
C2179       C  0.69902442  0.97261350  0.25328988    -0.08600
C2180       C  0.69561016  0.00082501  0.22524242    -0.06000
C2181       C  0.66790399  0.02316671  0.21864748    -0.00100
C2182       C  0.64242447  0.01592679  0.24023163    -0.08500
C2183       C  0.61131120  0.03571639  0.23214140     0.61800
H2184       H  0.62688559  0.98385341  0.28599216     0.12500
H2185       H  0.71444813  0.00482685  0.20756028     0.12500
C2186       C  0.72912489  0.94815496  0.25852584     0.62100
F2187       F  0.59001343  0.02788388  0.25748733    -0.23100
F2188       F  0.60074972  0.01842392  0.20225602    -0.20400
F2189       F  0.61371509  0.07957834  0.22838031    -0.20100
F2190       F  0.72356046  0.90490201  0.26197312    -0.20200
F2191       F  0.74349057  0.96236606  0.28742577    -0.20500
F2192       F  0.74899768  0.95342437  0.23137248    -0.23200
C2193       C  0.75549817  0.78092149  0.34673281    -0.06000
C2194       C  0.72335219  0.77901845  0.34812427    -0.00100
C2195       C  0.70935315  0.73894423  0.34535667    -0.08600
C2196       C  0.72809607  0.70157538  0.34496382    -0.06000
C2197       C  0.76034498  0.70291695  0.34772399    -0.00100
C2198       C  0.77442199  0.74360931  0.34619687    -0.08500
C2199       C  0.80903866  0.74825464  0.34601654     0.61800
H2200       H  0.76572205  0.81209576  0.34859896     0.12500
H2201       H  0.71740181  0.67073977  0.34474739     0.12500
C2202       C  0.67470742  0.73576911  0.34496948     0.62100
F2203       F  0.81741955  0.79056643  0.34258275    -0.23100
F2204       F  0.82163242  0.72593863  0.31891593    -0.20400
F2205       F  0.82127504  0.73264938  0.37613520    -0.20100
F2206       F  0.66303253  0.75932522  0.31790687    -0.20200
F2207       F  0.66249540  0.75175708  0.37491635    -0.20500
F2208       F  0.66548732  0.69388121  0.34156613    -0.23200
C2209       C  0.65299680  0.83431309  0.50059784    -0.06000
C2210       C  0.63661050  0.84140364  0.46997428    -0.00100
C2211       C  0.60408754  0.84495276  0.47245735    -0.08600
C2212       C  0.58999857  0.84542398  0.50503049    -0.06000
C2213       C  0.60686161  0.84381913  0.53561689    -0.00100
C2214       C  0.63898740  0.83626380  0.53319582    -0.08500
C2215       C  0.65865389  0.83065288  0.56470604     0.61800
H2216       H  0.67762683  0.82975611  0.49892192     0.12500
H2217       H  0.56541318  0.85046535  0.50675739     0.12500
C2218       C  0.58412215  0.85251213  0.44156110     0.62100
F2219       F  0.68814227  0.81661569  0.55678074    -0.23100
F2220       F  0.64585366  0.80065241  0.58619206    -0.20400
F2221       F  0.66068619  0.86926789  0.58142134    -0.20100
F2222       F  0.59064467  0.82204967  0.41710652    -0.20200
F2223       F  0.58940343  0.89291410  0.42893232    -0.20500
F2224       F  0.55317325  0.85028527  0.44925442    -0.23200
C2225       C  0.73639410  0.01963999  0.46561056    -0.06000
C2226       C  0.71367604  0.99083057  0.47510695    -0.00100
C2227       C  0.71513415  0.97031138  0.50711670    -0.08600
C2228       C  0.74063652  0.97662888  0.52764234    -0.06000
C2229       C  0.76367827  0.00469102  0.51778410    -0.00100
C2230       C  0.76210881  0.02551973  0.48594384    -0.08500
C2231       C  0.78726364  0.05377145  0.47247722     0.61800
H2232       H  0.73598483  0.03364198  0.44027890     0.12500
H2233       H  0.74119469  0.96245748  0.55289380     0.12500
C2234       C  0.69092544  0.93995642  0.51962301     0.62100
F2235       F  0.79721789  0.03845902  0.44132518    -0.23100
F2236       F  0.81234729  0.05452498  0.49387455    -0.20400
F2237       F  0.77578933  0.09505540  0.46829732    -0.20100
F2238       F  0.70330767  0.89888035  0.52047438    -0.20200
F2239       F  0.66523828  0.94074728  0.49905719    -0.20500
F2240       F  0.68174053  0.95130710  0.55209716    -0.23200
loop_ 
_geom_bond_atom_site_label_1 
_geom_bond_atom_site_label_2 
_geom_bond_distance 
_geom_bond_site_symmetry_2 
_ccdc_geom_bond_type 
O1          Cr19   2.079       .  S
O1            C9   1.286       .  A
O2          Cr19   1.967       .  S
O2            C3   1.254       .  A
C3            O4   1.262       .  A
C3         C1045   1.487       .  S
O4          Cr20   2.004       .  S
O5          Cr20   1.984       .  S
O5            C6   1.260       .  A
C6            O7   1.253       .  A
C6         C1106   1.442       .  S
O7          Cr21   1.946       .  S
O8          Cr21   1.965       .  S
O8            C9   1.260       .  A
C9         C1090   1.528       .  S
O10         Cr19   2.019       .  S
O10          C18   1.263       .  A
O11         Cr19   2.064       .  S
O11          C12   1.281       .  A
C12          O13   1.255       .  A
C12        C1058   1.495       .  S
O13         Cr20   1.954       .  S
O14         Cr20   1.993       .  S
O14          C15   1.266       .  A
C15          O16   1.268       .  A
C15        C1026   1.487       .  S
O16         Cr21   2.000       .  S
O17         Cr21   1.975       .  S
O17          C18   1.253       .  A
C18        C1074   1.487       .  S
Cr19         O22   1.778       .  S
Cr20         O22   1.778       .  S
Cr21         O22   1.779       .  S
O23         Cr41   2.018       .  S
O23          C31   1.268       .  A
O24         Cr41   1.998       .  S
O24          C25   1.265       .  A
C25          O26   1.263       .  A
C25         C978   1.481       .  S
O26         Cr42   1.981       .  S
O27         Cr42   1.965       .  S
O27          C28   1.252       .  A
C28          O29   1.253       .  A
C28         C962   1.458       .  S
O29         Cr43   1.967       .  S
O30         Cr43   2.012       .  S
O30          C31   1.268       .  A
C31         C946   1.525       .  S
O32         Cr41   2.032       .  S
O32          C40   1.269       .  A
O33         Cr41   2.033       .  S
O33          C34   1.277       .  A
C34          O35   1.256       .  A
C34        C1013   1.484       .  S
O35         Cr42   1.969       .  S
O36         Cr42   1.984       .  S
O36          C37   1.266       .  A
C37          O38   1.267       .  A
C37         C994   1.473       .  S
O38         Cr43   2.006       .  S
O39         Cr43   1.972       .  S
O39          C40   1.256       .  A
C40        C1077   1.506       .  S
Cr41         O44   1.770       .  S
Cr42         O44   1.775       .  S
Cr43         O44   1.772       .  S
O45         Cr63   2.027       .  S
O45          C53   1.268       .  A
O46         Cr63   2.000       .  S
O46          C47   1.262       .  A
C47          O48   1.264       .  A
C47         C885   1.488       .  S
O48         Cr64   1.979       .  S
O49         Cr64   1.986       .  S
O49          C50   1.255       .  A
C50          O51   1.248       .  A
C50         C933   1.458       .  S
O51         Cr65   1.959       .  S
O52         Cr65   2.007       .  S
O52          C53   1.266       .  A
C53         C917   1.518       .  S
O54         Cr63   2.050       .  S
O54          C62   1.274       .  A
O55         Cr63   2.036       .  S
O55          C56   1.281       .  A
C56          O57   1.261       .  A
C56        C1061   1.494       .  S
O57         Cr64   1.989       .  S
O58         Cr64   1.980       .  S
O58          C59   1.264       .  A
C59          O60   1.269       .  A
C59         C866   1.480       .  S
O60         Cr65   2.006       .  S
O61         Cr65   1.966       .  S
O61          C62   1.256       .  A
C62         C898   1.513       .  S
Cr63         O66   1.768       .  S
Cr64         O66   1.771       .  S
Cr65         O66   1.769       .  S
O67         Cr85   2.067       .  S
O67          C75   1.285       .  A
O68         Cr85   1.984       .  S
O68          C69   1.261       .  A
C69          O70   1.258       .  A
C69         C837   1.473       .  S
O70         Cr86   1.985       .  S
O71         Cr86   1.981       .  S
O71          C72   1.255       .  A
C72          O73   1.255       .  A
C72         C821   1.449       .  S
O73         Cr87   1.947       .  S
O74         Cr87   1.966       .  S
O74          C75   1.260       .  A
C75         C802   1.512       .  S
O76         Cr85   2.029       .  S
O76          C84   1.266       .  A
O77         Cr85   2.053       .  S
O77          C78   1.277       .  A
C78          O79   1.251       .  A
C78        C1010   1.480       .  S
O79         Cr86   1.942       .  S
O80         Cr86   1.989       .  S
O80          C81   1.266       .  A
C81          O82   1.265       .  A
C81         C850   1.473       .  S
O82         Cr87   1.986       .  S
O83         Cr87   1.978       .  S
O83          C84   1.254       .  A
C84         C901   1.491       .  S
Cr85         O88   1.769       .  S
Cr86         O88   1.775       .  S
Cr87         O88   1.764       .  S
O89        Cr107   1.998       .  S
O89          C97   1.259       .  A
O90        Cr107   1.982       .  S
O90          C91   1.257       .  A
C91          O92   1.253       .  A
C91         C773   1.481       .  S
O92        Cr108   1.947       .  S
O93        Cr108   1.970       .  S
O93          C94   1.258       .  A
C94          O95   1.267       .  A
C94         C869   1.480       .  S
O95        Cr109   2.012       .  S
O96        Cr109   2.028       .  S
O96          C97   1.271       .  A
C97         C786   1.521       .  S
O98        Cr107   1.978       .  S
O98         C106   1.258       .  A
O99       Cr1227   1.977       .  S
O99         C100   1.258       .  A
C100        O101   1.269       .  A
C100        C882   1.494   1_655  S
O101      Cr1228   1.994       .  S
O102       Cr108   1.965       .  S
O102        C103   1.253       .  A
C103        O104   1.279       .  A
C103        C741   1.493       .  S
O104       Cr109   2.044       .  S
O105       Cr109   2.046       .  S
O105        C106   1.275       .  A
C106        C754   1.513       .  S
Cr107      O1219   1.989       .  S
Cr107       O110   1.783       .  S
Cr108      O1221   1.980       .  S
Cr108       O110   1.771       .  S
Cr109       O110   1.772       .  S
O111       Cr129   1.965       .  S
O111        C119   1.259       .  A
O112       Cr129   1.960       .  S
O112        C113   1.260       .  A
C113        O114   1.258       .  A
C113        C706   1.451       .  S
O114       Cr130   1.980       .  S
O115       Cr130   1.976       .  S
O115        C116   1.252       .  A
C116        O117   1.255       .  A
C116        C853   1.466       .  S
O117       Cr131   1.980       .  S
O118       Cr131   2.074       .  S
O118        C119   1.284       .  A
C119        C693   1.531       .  S
O120      Cr1249   1.987       .  S
O120       C1248   1.259       .  A
O121      Cr1249   1.989       .  S
O121        C122   1.262       .  A
C122        O123   1.261       .  A
C122        C834   1.476       .  S
O123      Cr1250   1.986       .  S
O124       Cr130   1.955       .  S
O124        C125   1.258       .  A
C125        O126   1.285       .  A
C125        C722   1.497       .  S
O126       Cr131   2.072       .  S
O127       Cr131   2.021       .  S
O127        C128   1.267       .  A
C128       O1240   1.258       .  A
C128        C757   1.493       .  S
Cr129      O1240   1.983       .  S
Cr129      O1241   1.982   1_455  S
Cr129       O132   1.773       .  S
Cr130      O1243   1.989   1_455  S
Cr130       O132   1.780       .  S
Cr131       O132   1.775       .  S
O133       Cr151   2.006       .  S
O133        C141   1.265       .  A
O134       Cr151   1.966       .  S
O134        C135   1.253       .  A
C135        O136   1.250       .  A
C135        C661   1.464       .  S
O136       Cr152   1.964       .  S
O137       Cr152   1.988       .  S
O137        C138   1.268       .  A
C138        O139   1.266       .  A
C138       C1029   1.503       .  S
O139       Cr153   2.009       .  S
O140       Cr153   2.023       .  S
O140        C141   1.268       .  A
C141        C674   1.521       .  S
O142       Cr151   1.961       .  S
O142        C150   1.255       .  A
O143      Cr1271   2.008       .  S
O143        C144   1.266       .  A
C144        O145   1.267       .  A
C144       C1042   1.490   1_655  S
O145      Cr1272   1.989       .  S
O146       Cr152   1.956       .  S
O146        C147   1.253       .  A
C147        O148   1.281       .  A
C147        C738   1.495       .  S
O148       Cr153   2.050       .  S
O149       Cr153   2.056       .  S
O149        C150   1.275       .  A
C150        C645   1.508       .  S
Cr151      O1263   2.002       .  S
Cr151       O154   1.777       .  S
Cr152      O1265   1.989       .  S
Cr152       O154   1.775       .  S
Cr153       O154   1.772       .  S
O155       Cr173   1.998       .  S
O155        C163   1.260       .  A
O156       Cr173   1.967       .  S
O156        C157   1.252       .  A
C157        O158   1.254       .  A
C157        C610   1.461       .  S
O158       Cr174   1.980       .  S
O159       Cr174   1.978       .  S
O159        C160   1.264       .  A
C160        O161   1.269       .  A
C160        C997   1.478       .  S
O161       Cr175   2.016       .  S
O162       Cr175   2.029       .  S
O162        C163   1.272       .  A
C163        C626   1.519       .  S
O164      Cr1293   1.974       .  S
O164       C1292   1.259       .  A
O165      Cr1293   1.983       .  S
O165        C166   1.262       .  A
C166        O167   1.266       .  A
C166        C981   1.474       .  S
O167      Cr1294   1.988       .  S
O168       Cr174   1.978       .  S
O168        C169   1.256       .  A
C169        O170   1.277       .  A
C169        C725   1.490       .  S
O170       Cr175   2.042       .  S
O171       Cr175   2.042       .  S
O171        C172   1.272       .  A
C172       O1284   1.257       .  A
C172        C642   1.517       .  S
Cr173      O1284   1.973       .  S
Cr173      O1285   1.987   1_455  S
Cr173       O176   1.770       .  S
Cr174      O1287   1.986       .  S
Cr174       O176   1.781       .  S
Cr175       O176   1.765       .  S
O177       Cr195   1.959       .  S
O177        C185   1.260       .  A
O178       Cr195   1.941       .  S
O178        C179   1.248       .  A
C179        O180   1.259       .  A
C179       C1109   1.444       .  S
O180       Cr196   1.989       .  S
O181       Cr196   2.010       .  S
O181        C182   1.263       .  A
C182        O183   1.251       .  A
C182        C546   1.485       .  S
O183       Cr197   1.954       .  S
O184       Cr197   2.081       .  S
O184        C185   1.288       .  A
C185        C677   1.526       .  S
O186       Cr195   1.976       .  S
O186        C194   1.251       .  A
O187       Cr195   1.992       .  S
O187        C188   1.270       .  A
C188        O189   1.269       .  A
C188        C565   1.476       .  S
O189       Cr196   1.997       .  S
O190       Cr196   1.960       .  S
O190        C191   1.255       .  A
C191        O192   1.279       .  A
C191        C578   1.495       .  S
O192       Cr197   2.057       .  S
O193       Cr197   2.017       .  S
O193        C194   1.260       .  A
C194        C597   1.485       .  S
Cr195       O198   1.781       .  S
Cr196       O198   1.782       .  S
Cr197       O198   1.774       .  S
O199       Cr217   2.001       .  S
O199        C207   1.260       .  A
O200       Cr217   1.967       .  S
O200        C201   1.251       .  A
C201        O202   1.255       .  A
C201        C965   1.456       .  S
O202       Cr218   1.975       .  S
O203       Cr218   1.971       .  S
O203        C204   1.259       .  A
C204        O205   1.266       .  A
C204        C517   1.475       .  S
O205       Cr219   1.999       .  S
O206       Cr219   2.024       .  S
O206        C207   1.270       .  A
C207        C629   1.518       .  S
O208       Cr217   1.974       .  S
O208        C216   1.260       .  A
O209       Cr217   2.001       .  S
O209        C210   1.268       .  A
C210        O211   1.264       .  A
C210        C498   1.489       .  S
O211       Cr218   1.980       .  S
O212       Cr218   1.979       .  S
O212        C213   1.259       .  A
C213        O214   1.279       .  A
C213        C533   1.502       .  S
O214       Cr219   2.035       .  S
O215       Cr219   2.034       .  S
O215        C216   1.271       .  A
C216        C594   1.505       .  S
Cr217       O220   1.769       .  S
Cr218       O220   1.772       .  S
Cr219       O220   1.765       .  S
O221       Cr239   2.000       .  S
O221        C229   1.260       .  A
O222       Cr239   1.963       .  S
O222        C223   1.249       .  A
C223        O224   1.252       .  A
C223        C930   1.458       .  S
O224       Cr240   1.981       .  S
O225       Cr240   1.976       .  S
O225        C226   1.264       .  A
C226        O227   1.271       .  A
C226        C453   1.493       .  S
O227       Cr241   2.014       .  S
O228       Cr241   2.040       .  S
O228        C229   1.274       .  A
C229        C789   1.525       .  S
O230       Cr239   1.966       .  S
O230        C238   1.256       .  A
O231       Cr239   1.992       .  S
O231        C232   1.265       .  A
C232        O233   1.267       .  A
C232        C469   1.476       .  S
O233       Cr240   1.989       .  S
O234       Cr240   1.973       .  S
O234        C235   1.254       .  A
C235        O236   1.279       .  A
C235        C581   1.495       .  S
O236       Cr241   2.052       .  S
O237       Cr241   2.044       .  S
O237        C238   1.272       .  A
C238        C482   1.511       .  S
Cr239       O242   1.766       .  S
Cr240       O242   1.781       .  S
Cr241       O242   1.766       .  S
O243       Cr261   2.002       .  S
O243        C251   1.262       .  A
O244       Cr261   1.964       .  S
O244        C245   1.249       .  A
C245        O246   1.254       .  A
C245        C818   1.462       .  S
O246       Cr262   1.959       .  S
O247       Cr262   1.971       .  S
O247        C248   1.261       .  A
C248        O249   1.267       .  A
C248        C434   1.484       .  S
O249       Cr263   2.004       .  S
O250       Cr263   2.025       .  S
O250        C251   1.267       .  A
C251        C690   1.526       .  S
O252       Cr261   1.954       .  S
O252        C260   1.255       .  A
O253       Cr261   2.006       .  S
O253        C254   1.268       .  A
C254        O255   1.266       .  A
C254        C418   1.485       .  S
O255       Cr262   1.983       .  S
O256       Cr262   1.968       .  S
O256        C257   1.256       .  A
C257        O258   1.280       .  A
C257        C530   1.502       .  S
O258       Cr263   2.041       .  S
O259       Cr263   2.050       .  S
O259        C260   1.276       .  A
C260        C485   1.505       .  S
Cr261       O264   1.777       .  S
Cr262       O264   1.765       .  S
Cr263       O264   1.767       .  S
O265       Cr283   2.027       .  S
O265        C273   1.268       .  A
O266       Cr283   2.007       .  S
O266        C267   1.266       .  A
C267        O268   1.265       .  A
C267        C562   1.498       .  S
O268       Cr284   1.979       .  S
O269       Cr284   1.963       .  S
O269        C270   1.253       .  A
C270        O271   1.249       .  A
C270        C658   1.448       .  S
O271       Cr285   1.959       .  S
O272       Cr285   2.003       .  S
O272        C273   1.264       .  A
C273       C1093   1.521       .  S
O274       Cr283   2.060       .  S
O274        C282   1.277       .  A
O275       Cr283   2.047       .  S
O275        C276   1.282       .  A
C276        O277   1.254       .  A
C276        C386   1.506       .  S
O277       Cr284   1.952       .  S
O278      Cr1404   1.985       .  S
O278        C279   1.266       .  A
C279        O280   1.263       .  A
C279        C549   1.494       .  S
O280      Cr1405   2.006       .  S
O281      Cr1405   1.959       .  S
O281       C1402   1.257       .  A
C282       O1401   1.256       .  A
C282        C405   1.510       .  S
Cr283       O286   1.763       .  S
Cr284      O1398   1.976       .  S
Cr284       O286   1.767       .  S
Cr285      O1400   2.016   1_455  S
Cr285      O1401   1.964       .  S
Cr285       O286   1.771       .  S
O287       Cr305   2.017       .  S
O287        C295   1.266       .  A
O288       Cr305   2.008       .  S
O288        C289   1.268       .  A
C289        O290   1.259       .  A
C289        C501   1.490       .  S
O290       Cr306   1.973       .  S
O291       Cr306   1.968       .  S
O291        C292   1.251       .  A
C292        O293   1.253       .  A
C292        C613   1.458       .  S
O293       Cr307   1.967       .  S
O294       Cr307   2.004       .  S
O294        C295   1.266       .  A
C295        C949   1.518       .  S
O296       Cr305   2.045       .  S
O296        C304   1.272       .  A
O297       Cr305   2.041       .  S
O297        C298   1.280       .  A
C298        O299   1.259       .  A
C298        C370   1.510       .  S
O299       Cr306   1.980       .  S
O300      Cr1426   1.971       .  S
O300        C301   1.262       .  A
C301        O302   1.268       .  A
C301        C514   1.475   1_655  S
O302      Cr1427   2.001       .  S
O303       Cr307   1.967       .  S
O303        C304   1.255       .  A
C304        C402   1.508       .  S
Cr305       O308   1.768       .  S
Cr306      O1420   1.975       .  S
Cr306       O308   1.767       .  S
Cr307      O1422   1.994       .  S
Cr307       O308   1.775       .  S
O309       Cr327   2.041       .  S
O309        C317   1.274       .  A
O310       Cr327   2.001       .  S
O310        C311   1.258       .  A
C311        O312   1.265       .  A
C311        C466   1.484       .  S
O312       Cr328   1.985       .  S
O313       Cr328   1.957   1_565  S
O313        C314   1.249   1_565  A
C314        O315   1.253       .  A
C314        C770   1.478   1_545  S
O315       Cr329   1.964       .  S
O316       Cr329   2.001       .  S
O316        C317   1.265       .  A
C317        C914   1.531       .  S
O318       Cr327   2.034       .  S
O318        C326   1.270       .  A
O319       Cr327   2.044       .  S
O319        C320   1.282       .  A
C320        O321   1.256       .  A
C320        C389   1.497       .  S
O321       Cr328   1.961       .  S
O322      Cr1448   1.997       .  S
O322        C323   1.268       .  A
C323        O324   1.267       .  A
C323        C450   1.496       .  S
O324      Cr1449   1.989       .  S
O325      Cr1449   1.970       .  S
O325       C1446   1.251       .  A
C326       O1445   1.253       .  A
C326        C357   1.513   1_455  S
Cr327       O330   1.770       .  S
Cr328      O1442   1.997       .  S
Cr328       O330   1.775       .  S
Cr329      O1444   1.984   1_455  S
Cr329      O1445   1.973       .  S
Cr329       O330   1.774       .  S
O331       Cr349   2.024       .  S
O331        C339   1.271       .  A
O332       Cr349   2.001       .  S
O332        C333   1.268       .  A
C333        O334   1.263       .  A
C333        C421   1.478       .  S
O334       Cr350   1.982       .  S
O335       Cr350   1.967       .  S
O335        C336   1.246       .  A
C336        O337   1.250       .  A
C336        C709   1.477       .  S
O337       Cr351   1.960       .  S
O338       Cr351   2.009       .  S
O338        C339   1.263       .  A
C339        C805   1.525       .  S
O340       Cr349   2.044       .  S
O340        C348   1.272       .  A
O341       Cr349   2.051       .  S
O341        C342   1.281       .  A
C342        O343   1.257       .  A
C342        C373   1.516       .  S
O343       Cr350   1.971       .  S
O344      Cr1470   1.989       .  S
O344        C345   1.267       .  A
C345        O346   1.268       .  A
C345        C437   1.490   1_655  S
O346      Cr1471   1.992       .  S
O347       Cr351   1.960       .  S
O347        C348   1.251       .  A
C348        C354   1.497       .  S
Cr349       O352   1.769       .  S
Cr350      O1464   1.986       .  S
Cr350       O352   1.778       .  S
Cr351      O1466   1.996       .  S
Cr351       O352   1.772       .  S
C353        C354   1.402       .  A
C353        C358   1.415       .  A
C353        H360   1.083       .  S
C354       C1475   1.421       .  A
C355        C356   1.410   1_655  A
C355       C1474   1.419       .  A
C355        C362   1.517   1_655  S
C356        C357   1.409   1_455  A
C356        H361   1.084       .  S
C357       C1478   1.434       .  A
C358       C1477   1.432       .  A
C358        C359   1.521       .  S
C359        F363   1.385       .  S
C359        F364   1.383       .  S
C359        F365   1.384       .  S
C362        F366   1.383       .  S
C362        F367   1.383   1_455  S
C362        F368   1.384       .  S
C369        C370   1.420       .  A
C369        C374   1.419       .  A
C369        H376   1.082       .  S
C370        C371   1.412       .  A
C371        C372   1.415       .  A
C371        C378   1.518       .  S
C372        C373   1.423       .  A
C372        H377   1.082       .  S
C373        C374   1.415       .  A
C374       C1495   1.517       .  S
C375       C1494   1.515       .  S
C375        F379   1.385       .  S
C375        F380   1.383       .  S
C375        F381   1.381       .  S
C378        F382   1.383       .  S
C378        F383   1.383       .  S
C378        F384   1.385       .  S
C385        C386   1.424   1_545  A
C385        C390   1.411       .  A
C385        H392   1.082       .  S
C386        C387   1.410       .  A
C387        C388   1.415       .  A
C387       C1514   1.517       .  S
C388        C389   1.419   1_565  A
C388       H1513   1.079       .  S
C389        C390   1.407       .  A
C390        C391   1.517       .  S
C391        F395   1.384       .  S
C391        F396   1.383       .  S
C391        F397   1.383       .  S
H393       C1508   1.081       .  S
C394       C1507   1.520       .  S
C394        F398   1.382       .  S
C394        F399   1.383       .  S
C394        F400   1.385       .  S
C401        C406   1.417       .  A
C401       C1522   1.415   1_455  A
C401        H408   1.082       .  S
C402        C403   1.420       .  A
C402       C1521   1.414       .  A
C403        C404   1.413       .  A
C403        C410   1.520       .  S
C404       C1525   1.411       .  A
C404        H409   1.082       .  S
C405        C406   1.420       .  A
C405       C1524   1.412   1_455  A
C406        C407   1.519       .  S
C407        F411   1.385       .  S
C407        F412   1.383       .  S
C407        F413   1.383       .  S
C410        F414   1.383       .  S
C410        F415   1.384       .  S
C410        F416   1.385       .  S
C417        C418   1.411       .  A
C417        C422   1.407       .  A
C417        H424   1.083       .  S
C418        C419   1.417       .  A
C419        C420   1.403       .  A
C419        C426   1.516       .  S
C420        C421   1.405       .  A
C420        H425   1.084       .  S
C421        C422   1.414       .  A
C422        C423   1.519       .  S
C423        F427   1.384       .  S
C423        F428   1.383       .  S
C423        F429   1.384       .  S
C426        F430   1.384       .  S
C426        F431   1.379       .  S
C426        F432   1.385       .  S
C433        C434   1.409       .  A
C433        C438   1.407       .  A
C433        H440   1.082       .  S
C434        C435   1.416       .  A
C435        C436   1.401       .  A
C435        C442   1.522       .  S
C436        C437   1.412       .  A
C436        H441   1.082       .  S
C437        C438   1.417       .  A
C438        C439   1.518       .  S
C439        F443   1.385       .  S
C439        F444   1.382   1_455  S
C439        F445   1.381       .  S
C442        F446   1.384       .  S
C442        F447   1.381       .  S
C442        F448   1.383       .  S
C449        C450   1.411       .  A
C449        C454   1.405   1_545  A
C449        H456   1.081       .  S
C450        C451   1.420   1_545  A
C451        C452   1.410       .  A
C451        C458   1.521       .  S
C452        C453   1.410       .  A
C452        H457   1.081       .  S
C453        C454   1.419       .  A
C454        C455   1.523   1_565  S
C455        F459   1.384       .  S
C455        F460   1.384   1_545  S
C455        F461   1.383       .  S
C458        F462   1.383       .  S
C458        F463   1.383   1_565  S
C458        F464   1.385       .  S
C465        C466   1.403   1_565  A
C465        C470   1.397       .  A
C465        H472   1.084       .  S
C466        C467   1.433       .  A
C467        C468   1.409       .  A
C467        C474   1.524       .  S
C468        C469   1.398   1_545  A
C468        H473   1.084       .  S
C469        C470   1.413       .  A
C470        C471   1.515       .  S
C471        F475   1.385       .  S
C471        F476   1.382       .  S
C471        F477   1.383       .  S
C474        F478   1.385       .  S
C474        F479   1.373       .  S
C474        F480   1.383       .  S
C481        C482   1.412       .  A
C481        C486   1.413       .  A
C481        H488   1.077       .  S
C482        C483   1.422       .  A
C483        C484   1.415       .  A
C483        C490   1.520       .  S
C484        C485   1.413       .  A
C484        H489   1.083       .  S
C485        C486   1.417       .  A
C486        C487   1.519       .  S
C487        F491   1.384       .  S
C487        F492   1.384       .  S
C487        F493   1.383       .  S
C490        F494   1.384       .  S
C490        F495   1.383       .  S
C490        F496   1.385       .  S
C497        C498   1.408       .  A
C497        C502   1.405       .  A
C497        H504   1.082       .  S
C498        C499   1.421       .  A
C499        C500   1.406       .  A
C499        C506   1.522       .  S
C500        C501   1.408       .  A
C500        H505   1.082       .  S
C501        C502   1.421       .  A
C502        C503   1.522       .  S
C503        F507   1.384       .  S
C503        F508   1.383       .  S
C503        F509   1.383       .  S
C506        F510   1.383       .  S
C506        F511   1.384       .  S
C506        F512   1.385       .  S
C513        C514   1.404       .  A
C513        C518   1.403       .  A
C513        H520   1.083       .  S
C514        C515   1.419       .  A
C515        C516   1.402       .  A
C515        C522   1.521       .  S
C516        C517   1.404       .  A
C516        H521   1.083       .  S
C517        C518   1.418       .  A
C518        C519   1.520       .  S
C519        F523   1.385       .  S
C519        F524   1.382       .  S
C519        F525   1.383       .  S
C522        F526   1.383   1_455  S
C522        F527   1.382   1_455  S
C522        F528   1.385       .  S
C529        C530   1.415       .  A
C529        C534   1.414       .  A
C529        H536   1.078       .  S
C530        C531   1.413       .  A
C531        C532   1.416       .  A
C531        C538   1.516       .  S
C532        C533   1.417       .  A
C532        H537   1.083       .  S
C533        C534   1.412       .  A
C534        C535   1.518       .  S
C535        F539   1.384       .  S
C535        F540   1.384       .  S
C535        F541   1.383       .  S
C538        F542   1.382       .  S
C538        F543   1.383       .  S
C538        F544   1.385       .  S
C545        C546   1.401   1_565  A
C545        C550   1.411       .  A
C545        H552   1.083       .  S
C546        C547   1.422       .  A
C547        C548   1.402       .  A
C547        C554   1.522       .  S
C548        C549   1.403   1_545  A
C548        H553   1.082       .  S
C549        C550   1.428       .  A
C550        C551   1.521       .  S
C551        F555   1.385       .  S
C551        F556   1.382       .  S
C551        F557   1.382       .  S
C554        F558   1.382       .  S
C554        F559   1.382       .  S
C554        F560   1.385       .  S
C561        C562   1.411   1_545  A
C561        C566   1.410       .  A
C561        H568   1.082       .  S
C562        C563   1.430       .  A
C563        C564   1.403   1_565  A
C563        C570   1.524       .  S
C564        C565   1.398       .  A
C564        H569   1.082       .  S
C565        C566   1.413       .  A
C566        C567   1.517       .  S
C567        F571   1.384       .  S
C567        F572   1.381       .  S
C567        F573   1.383       .  S
C570        F574   1.383       .  S
C570        F575   1.384       .  S
C570        F576   1.385       .  S
C577        C578   1.408   1_565  A
C577        C582   1.418       .  A
C577        H584   1.083       .  S
C578        C579   1.418       .  A
C579        C580   1.416   1_545  A
C579        C586   1.519       .  S
C580        C581   1.410       .  A
C580        H585   1.082       .  S
C581        C582   1.416       .  A
C582        C583   1.514       .  S
C583        F587   1.385       .  S
C583        F588   1.383       .  S
C583        F589   1.382       .  S
C586        F590   1.381       .  S
C586        F591   1.383       .  S
C586        F592   1.385       .  S
C593        C594   1.413       .  A
C593        C598   1.413       .  A
C593        H600   1.083       .  S
C594        C595   1.426       .  A
C595        C596   1.413       .  A
C595        C602   1.520       .  S
C596        C597   1.403       .  A
C596        H601   1.084       .  S
C597        C598   1.411       .  A
C598        C599   1.515       .  S
C599        F603   1.384       .  S
C599        F604   1.383       .  S
C599        F605   1.383       .  S
C602        F606   1.383       .  S
C602        F607   1.383       .  S
C602        F608   1.385       .  S
C609        C614   1.396       .  A
C609       C1730   1.403       .  A
C609       H1736   1.083       .  S
C610       C1729   1.405   1_455  A
C610       C1731   1.412       .  A
C611        C612   1.402       .  A
C611       C1730   1.411       .  A
C611       C1738   1.519       .  S
C612        C613   1.406       .  A
C612        H617   1.083       .  S
C613        C614   1.410       .  A
C614        C615   1.517       .  S
C615        F619   1.385       .  S
C615        F620   1.383       .  S
C615       F1741   1.382       .  S
H616       C1729   1.085       .  S
C618       C1731   1.519       .  S
C618        F623   1.384       .  S
C618       F1742   1.382       .  S
C618       F1744   1.385       .  S
F621       C1735   1.383       .  S
F622       C1738   1.382       .  S
F624       C1738   1.385       .  S
C625        C626   1.405       .  A
C625        C630   1.419       .  A
C625        H632   1.082       .  S
C626        C627   1.431       .  A
C627        C628   1.417       .  A
C627        C634   1.520       .  S
C628        C629   1.406       .  A
C628        H633   1.083       .  S
C629        C630   1.432       .  A
C630        C631   1.520       .  S
C631        F635   1.385       .  S
C631        F636   1.383       .  S
C631        F637   1.378       .  S
C634        F638   1.384       .  S
C634        F639   1.380       .  S
C634        F640   1.385       .  S
C641        C646   1.417       .  A
C641       C1762   1.415       .  A
C641        H648   1.082       .  S
C642        C643   1.425       .  A
C642       C1761   1.416   1_455  A
C643        C644   1.416       .  A
C643        C650   1.519       .  S
C644       C1765   1.408   1_455  A
C644        H649   1.082       .  S
C645        C646   1.418       .  A
C645       C1764   1.409       .  A
C646        C647   1.517       .  S
C647        F651   1.385       .  S
C647        F652   1.383       .  S
C647        F653   1.383       .  S
C650        F654   1.383       .  S
C650        F655   1.384       .  S
C650        F656   1.385       .  S
C657        C662   1.397       .  A
C657       C1778   1.402       .  A
C657        H664   1.083       .  S
C658        C659   1.410   1_565  A
C658       C1777   1.403       .  A
C659        C660   1.391   1_455  A
C659        C666   1.518       .  S
C660       C1781   1.403       .  A
C660        H665   1.085       .  S
C661        C662   1.418   1_545  A
C661       C1780   1.406       .  A
C662        C663   1.522       .  S
C663        F667   1.385       .  S
C663        F668   1.383       .  S
C663        F669   1.384       .  S
C666        F670   1.384       .  S
C666        F671   1.383       .  S
C666        F672   1.383       .  S
C673        C674   1.413       .  A
C673        C678   1.422       .  A
C673        H680   1.082       .  S
C674        C675   1.421       .  A
C675        C676   1.419       .  A
C675        C682   1.518       .  S
C676        C677   1.416       .  A
C676        H681   1.082       .  S
C677        C678   1.423       .  A
C678        C679   1.513       .  S
C679        F683   1.385       .  S
C679        F684   1.376       .  S
C679        F685   1.383       .  S
C682        F686   1.382       .  S
C682        F687   1.384       .  S
C682        F688   1.385       .  S
C689        C690   1.417       .  A
C689        C694   1.427   1_556  A
C689        H696   1.082       .  S
C690        C691   1.422       .  A
C691        C692   1.419       .  A
C691        C698   1.519       .  S
C692        C693   1.417   1_556  A
C692        H697   1.082       .  S
C693        C694   1.424       .  A
C694        C695   1.515       .  S
C695        F699   1.381       .  S
C695        F700   1.383       .  S
C695        F701   1.385       .  S
C698        F702   1.383       .  S
C698        F703   1.384       .  S
C698        F704   1.384       .  S
C705        C706   1.398   1_556  A
C705       C1830   1.398   1_455  A
C705        H712   1.084       .  S
C706       C1827   1.404       .  A
C707        C708   1.397   1_554  A
C707       C1826   1.404       .  A
C707        C714   1.517       .  S
C708        C709   1.409       .  A
C708        H713   1.077       .  S
C709        C710   1.428       .  A
C710       C1825   1.396       .  A
C710       C1831   1.525       .  S
C711       C1830   1.525       .  S
C711        F715   1.384   1_655  S
C711        F717   1.383       .  S
C711       F1836   1.384       .  S
C714        F718   1.382       .  S
C714        F720   1.385       .  S
C714       F1839   1.383       .  S
F716       C1831   1.384       .  S
F719       C1834   1.384       .  S
C721        C722   1.409       .  A
C721        C726   1.416       .  A
C721        H728   1.081       .  S
C722        C723   1.419       .  A
C723        C724   1.415       .  A
C723       C1850   1.519       .  S
C724        C725   1.408       .  A
C724       H1849   1.083       .  S
C725        C726   1.416       .  A
C726        C727   1.516       .  S
C727        F731   1.385       .  S
C727        F732   1.383       .  S
C727        F733   1.383       .  S
H729       C1844   1.083       .  S
C730       C1843   1.520       .  S
C730        F734   1.382       .  S
C730        F735   1.384       .  S
C730        F736   1.384       .  S
C737        C738   1.414   1_565  A
C737        C742   1.411       .  A
C737        H744   1.082       .  S
C738        C739   1.413       .  A
C739        C740   1.420       .  A
C739        C746   1.516       .  S
C740        C741   1.416   1_545  A
C740        H745   1.083       .  S
C741        C742   1.412       .  A
C742        C743   1.517       .  S
C743        F747   1.385       .  S
C743        F748   1.383       .  S
C743        F749   1.383       .  S
C746        F751   1.383       .  S
C746        F752   1.385       .  S
C746       F1870   1.384       .  S
F750       C1866   1.383       .  S
C753        C754   1.409       .  A
C753        C758   1.414       .  A
C753        H760   1.084       .  S
C754       C1875   1.430       .  A
C755        C756   1.414       .  A
C755       C1874   1.431   1_455  A
C755        C762   1.516       .  S
C756        C757   1.399       .  A
C756        H761   1.085       .  S
C757       C1878   1.420   1_455  A
C758       C1877   1.418       .  A
C758        C759   1.514       .  S
C759        F763   1.384       .  S
C759        F764   1.383       .  S
C759        F765   1.380       .  S
C762        F766   1.381       .  S
C762        F767   1.381       .  S
C762        F768   1.384       .  S
C769        C770   1.414       .  A
C769        C774   1.399   1_455  A
C769        H776   1.084       .  S
C770       C1891   1.408   1_566  A
C771        C772   1.401   1_556  A
C771       C1890   1.420       .  A
C771        C778   1.522   1_556  S
C772        C773   1.410   1_545  A
C772        H777   1.083       .  S
C773       C1894   1.407   1_554  A
C774       C1893   1.414   1_556  A
C774        C775   1.518       .  S
C775        F779   1.380       .  S
C775        F780   1.381       .  S
C775        F781   1.383       .  S
C778        F782   1.382   1_554  S
C778        F783   1.384       .  S
C778        F784   1.385       .  S
C785        C786   1.404       .  A
C785        C790   1.418   1_554  A
C785        H792   1.083       .  S
C786        C787   1.430   1_554  A
C787        C788   1.423       .  A
C787        C794   1.520       .  S
C788        C789   1.409       .  A
C788        H793   1.083       .  S
C789        C790   1.435       .  A
C790        C791   1.521   1_556  S
C791        F795   1.385       .  S
C791        F796   1.384   1_554  S
C791        F797   1.377   1_554  S
C794        F798   1.384   1_556  S
C794        F799   1.376   1_556  S
C794        F800   1.385       .  S
C801        C802   1.402       .  A
C801        C806   1.421   1_554  A
C801        H808   1.083       .  S
C802        C803   1.425   1_554  A
C803        C804   1.414       .  A
C803        C810   1.517       .  S
C804        C805   1.407       .  A
C804        H809   1.084       .  S
C805        C806   1.436       .  A
C806        C807   1.516   1_556  S
C807        F811   1.385       .  S
C807        F812   1.373   1_554  S
C807        F813   1.383   1_554  S
C810        F814   1.380       .  S
C810        F815   1.383   1_556  S
C810        F816   1.384       .  S
C817        C818   1.409   1_554  A
C817        C822   1.405       .  A
C817        H824   1.083       .  S
C818        C819   1.413       .  A
C819        C820   1.385       .  A
C819        C826   1.519       .  S
C820        C821   1.398   1_556  A
C820        H825   1.083       .  S
C821        C822   1.412       .  A
C822        C823   1.515       .  S
C823        F827   1.385       .  S
C823        F828   1.383       .  S
C823        F829   1.382       .  S
C826        F830   1.383       .  S
C826        F831   1.383       .  S
C826        F832   1.385       .  S
C833        C834   1.404       .  A
C833        C838   1.400       .  A
C833        H840   1.084       .  S
C834        C835   1.418       .  A
C835        C836   1.409       .  A
C835        C842   1.518       .  S
C836        C837   1.405       .  A
C836        H841   1.083       .  S
C837        C838   1.414       .  A
C838        C839   1.519       .  S
C839        F843   1.385       .  S
C839        F844   1.383       .  S
C839        F845   1.380       .  S
C842        F846   1.383       .  S
C842        F847   1.380       .  S
C842        F848   1.385       .  S
C849        C850   1.406       .  A
C849        C854   1.401       .  A
C849        H856   1.083       .  S
C850        C851   1.417       .  A
C851        C852   1.404       .  A
C851        C858   1.519       .  S
C852        C853   1.403       .  A
C852        H857   1.084       .  S
C853        C854   1.413       .  A
C854        C855   1.520       .  S
C855        F859   1.385       .  S
C855        F860   1.381       .  S
C855        F861   1.382       .  S
C858        F862   1.382       .  S
C858        F863   1.383       .  S
C858        F864   1.385       .  S
C865        C866   1.403       .  A
C865        C870   1.405       .  A
C865        H872   1.083       .  S
C866        C867   1.419   1_545  A
C867        C868   1.408       .  A
C867        C874   1.519       .  S
C868        C869   1.403       .  A
C868        H873   1.083       .  S
C869        C870   1.419   1_565  A
C870        C871   1.521       .  S
C871        F875   1.385       .  S
C871        F876   1.383       .  S
C871        F877   1.383       .  S
C874        F878   1.383       .  S
C874        F879   1.383       .  S
C874        F880   1.385       .  S
C881        C882   1.405   1_545  A
C881        C886   1.406       .  A
C881        H888   1.082       .  S
C882        C883   1.431       .  A
C883        C884   1.403       .  A
C883        C890   1.526       .  S
C884        C885   1.401   1_565  A
C884        H889   1.081       .  S
C885        C886   1.423       .  A
C886        C887   1.521       .  S
C887        F891   1.385       .  S
C887        F892   1.382       .  S
C887        F893   1.381       .  S
C890        F894   1.382       .  S
C890        F895   1.379       .  S
C890        F896   1.385       .  S
C897        C898   1.415       .  A
C897        C902   1.413       .  A
C897        H904   1.083       .  S
C898        C899   1.426       .  A
C899        C900   1.417       .  A
C899        C906   1.519       .  S
C900        C901   1.406       .  A
C900        H905   1.083       .  S
C901        C902   1.411       .  A
C902        C903   1.517       .  S
C903        F907   1.384       .  S
C903        F908   1.383       .  S
C903        F909   1.383       .  S
C906        F910   1.383       .  S
C906        F911   1.383       .  S
C906        F912   1.384       .  S
C913        C914   1.417       .  A
C913        C918   1.420   1_556  A
C913        H920   1.084       .  S
C914        C915   1.427       .  A
C915        C916   1.419       .  A
C915        C922   1.512       .  S
C916        C917   1.410   1_556  A
C916        H921   1.081   1_556  S
C917        C918   1.421       .  A
C918        C919   1.516       .  S
C919        F923   1.384       .  S
C919        F924   1.381       .  S
C919        F925   1.382       .  S
C922        F926   1.382       .  S
C922        F927   1.381       .  S
C922        F928   1.385       .  S
C929        C930   1.406       .  A
C929        C934   1.399       .  A
C929        H936   1.083       .  S
C930        C931   1.409   1_565  A
C931        C932   1.400   1_556  A
C931        C938   1.519       .  S
C932        C933   1.407       .  A
C932        H937   1.083       .  S
C933        C934   1.408   1_544  A
C934        C935   1.519       .  S
C935        F939   1.385       .  S
C935        F940   1.384       .  S
C935        F941   1.381   1_556  S
C938        F942   1.382       .  S
C938        F943   1.383       .  S
C938        F944   1.385       .  S
C945        C946   1.415       .  A
C945        C950   1.421       .  A
C945        H952   1.082       .  S
C946        C947   1.427       .  A
C947        C948   1.418       .  A
C947        C954   1.517       .  S
C948        C949   1.410       .  A
C948        H953   1.082       .  S
C949        C950   1.422       .  A
C950        C951   1.518       .  S
C951        F955   1.385       .  S
C951        F956   1.384       .  S
C951        F957   1.382       .  S
C954        F958   1.383       .  S
C954        F959   1.380       .  S
C954        F960   1.385       .  S
C961        C962   1.405       .  A
C961        C966   1.396       .  A
C961        H968   1.085       .  S
C962        C963   1.415       .  A
C963        C964   1.396       .  A
C963        C970   1.518       .  S
C964        C965   1.402       .  A
C964        H969   1.084       .  S
C965        C966   1.409       .  A
C966        C967   1.516       .  S
C967        F971   1.384       .  S
C967        F972   1.383       .  S
C967        F973   1.383       .  S
C970        F974   1.382       .  S
C970        F975   1.383       .  S
C970        F976   1.383       .  S
C977        C978   1.408       .  A
C977        C982   1.403       .  A
C977        H984   1.082       .  S
C978        C979   1.418       .  A
C979        C980   1.404       .  A
C979        C986   1.520       .  S
C980        C981   1.406       .  A
C980        H985   1.083       .  S
C981        C982   1.414       .  A
C982        C983   1.520       .  S
C983        F987   1.385       .  S
C983        F988   1.381       .  S
C983        F989   1.383       .  S
C986        F990   1.383       .  S
C986        F991   1.382       .  S
C986        F992   1.385       .  S
C993        C994   1.402       .  A
C993        C998   1.407       .  A
C993       H1000   1.084       .  S
C994        C995   1.413       .  A
C995        C996   1.407       .  A
C995       C1002   1.516       .  S
C996        C997   1.404       .  A
C996       H1001   1.084       .  S
C997        C998   1.416       .  A
C998        C999   1.515       .  S
C999       F1003   1.385       .  S
C999       F1004   1.382       .  S
C999       F1005   1.382       .  S
C1002      F1006   1.384       .  S
C1002      F1007   1.381       .  S
C1002      F1008   1.385       .  S
C1009      C1010   1.410       .  A
C1009      C1014   1.415       .  A
C1009      H1016   1.083       .  S
C1010      C1011   1.410       .  A
C1011      C1012   1.408       .  A
C1011      C1018   1.518       .  S
C1012      C1013   1.410       .  A
C1012      H1017   1.083       .  S
C1013      C1014   1.414       .  A
C1014      C1015   1.516       .  S
C1015      F1019   1.385       .  S
C1015      F1020   1.384       .  S
C1015      F1021   1.383       .  S
C1018      F1022   1.384       .  S
C1018      F1023   1.383       .  S
C1018      F1024   1.385       .  S
C1025      C1026   1.402       .  A
C1025      C1030   1.405   1_565  A
C1025      H1032   1.083   1_565  S
C1026      C1027   1.415       .  A
C1027      C1028   1.413       .  A
C1027      C1034   1.516       .  S
C1028      C1029   1.412   1_565  A
C1028      H1033   1.082       .  S
C1029      C1030   1.431       .  A
C1030      C1031   1.526       .  S
C1031      F1035   1.385       .  S
C1031      F1036   1.382       .  S
C1031      F1037   1.382       .  S
C1034      F1038   1.383       .  S
C1034      F1039   1.383       .  S
C1034      F1040   1.385       .  S
C1041      C1042   1.405   1_565  A
C1041      C1046   1.408       .  A
C1041      H1048   1.083       .  S
C1042      C1043   1.423       .  A
C1043      C1044   1.407       .  A
C1043      C1050   1.519       .  S
C1044      C1045   1.402   1_545  A
C1044      H1049   1.083       .  S
C1045      C1046   1.422       .  A
C1046      C1047   1.521       .  S
C1047      F1051   1.385       .  S
C1047      F1052   1.381       .  S
C1047      F1053   1.383       .  S
C1050      F1054   1.381       .  S
C1050      F1055   1.382       .  S
C1050      F1056   1.385       .  S
C1057      C1058   1.407       .  A
C1057      C1062   1.418   1_565  A
C1057      H1064   1.083       .  S
C1058      C1059   1.419       .  A
C1059      C1060   1.415       .  A
C1059      C1066   1.518       .  S
C1060      C1061   1.406   1_565  A
C1060      H1065   1.084   1_565  S
C1061      C1062   1.419       .  A
C1062      C1063   1.515       .  S
C1063      F1067   1.385       .  S
C1063      F1068   1.383       .  S
C1063      F1069   1.383       .  S
C1066      F1070   1.384       .  S
C1066      F1071   1.381       .  S
C1066      F1072   1.385       .  S
C1073      C1074   1.405       .  A
C1073      C1078   1.413       .  A
C1073      H1080   1.083       .  S
C1074      C1075   1.411       .  A
C1075      C1076   1.413       .  A
C1075      C1082   1.515       .  S
C1076      C1077   1.413       .  A
C1076      H1081   1.081       .  S
C1077      C1078   1.423       .  A
C1078      C1079   1.518       .  S
C1079      F1083   1.385       .  S
C1079      F1084   1.384       .  S
C1079      F1085   1.383       .  S
C1082      F1086   1.383       .  S
C1082      F1087   1.383       .  S
C1082      F1088   1.385       .  S
C1089      C1090   1.416       .  A
C1089      C1094   1.421       .  A
C1089      H1096   1.082       .  S
C1090      C1091   1.424       .  A
C1091      C1092   1.422       .  A
C1091      C1098   1.513       .  S
C1092      C1093   1.413       .  A
C1092      H1097   1.082       .  S
C1093      C1094   1.420       .  A
C1094      C1095   1.518       .  S
C1095      F1099   1.385       .  S
C1095      F1100   1.384       .  S
C1095      F1101   1.383       .  S
C1098      F1102   1.383       .  S
C1098      F1103   1.377       .  S
C1098      F1104   1.385       .  S
C1105      C1106   1.402   1_545  A
C1105      C1110   1.398       .  A
C1105      H1112   1.086       .  S
C1106      C1107   1.410       .  A
C1107      C1108   1.397       .  A
C1107      C1114   1.514       .  S
C1108      C1109   1.402   1_565  A
C1108      H1113   1.086       .  S
C1109      C1110   1.411       .  A
C1110      C1111   1.515       .  S
C1111      F1115   1.384       .  S
C1111      F1116   1.383       .  S
C1111      F1117   1.382       .  S
C1114      F1118   1.381       .  S
C1114      F1119   1.384       .  S
C1114      F1120   1.383       .  S
O1121     Cr1139   2.079       .  S
O1121      C1129   1.287       .  A
O1122     Cr1139   1.964       .  S
O1122      C1123   1.253       .  A
C1123      O1124   1.261       .  A
C1123      C2165   1.487       .  S
O1124     Cr1140   2.003       .  S
O1125     Cr1140   1.983       .  S
O1125      C1126   1.259       .  A
C1126      O1127   1.253       .  A
C1126      C2226   1.439       .  S
O1127     Cr1141   1.944       .  S
O1128     Cr1141   1.956       .  S
O1128      C1129   1.258       .  A
C1129      C2210   1.524       .  S
O1130     Cr1139   2.016       .  S
O1130      C1138   1.261       .  A
O1131     Cr1139   2.058       .  S
O1131      C1132   1.280       .  A
C1132      O1133   1.255       .  A
C1132      C2178   1.491       .  S
O1133     Cr1140   1.954       .  S
O1134     Cr1140   1.994       .  S
O1134      C1135   1.267       .  A
C1135      O1136   1.267       .  A
C1135      C2146   1.483       .  S
O1136     Cr1141   1.994       .  S
O1137     Cr1141   1.972       .  S
O1137      C1138   1.252       .  A
C1138      C2194   1.484       .  S
Cr1139     O1142   1.774       .  S
Cr1140     O1142   1.776       .  S
Cr1141     O1142   1.778       .  S
O1143     Cr1161   2.023       .  S
O1143      C1151   1.269       .  A
O1144     Cr1161   1.998       .  S
O1144      C1145   1.264       .  A
C1145      O1146   1.262       .  A
C1145      C2098   1.481       .  S
O1146     Cr1162   1.980       .  S
O1147     Cr1162   1.971       .  S
O1147      C1148   1.254       .  A
C1148      O1149   1.253       .  A
C1148      C2082   1.459       .  S
O1149     Cr1163   1.965       .  S
O1150     Cr1163   2.008       .  S
O1150      C1151   1.267       .  A
C1151      C2066   1.523       .  S
O1152     Cr1161   2.033       .  S
O1152      C1160   1.269       .  A
O1153     Cr1161   2.034       .  S
O1153      C1154   1.278       .  A
C1154      O1155   1.258       .  A
C1154      C2133   1.487       .  S
O1155     Cr1162   1.972       .  S
O1156     Cr1162   1.983       .  S
O1156      C1157   1.265       .  A
C1157      O1158   1.267       .  A
C1157      C2114   1.470       .  S
O1158     Cr1163   2.007       .  S
O1159     Cr1163   1.970       .  S
O1159      C1160   1.257       .  A
C1160      C2197   1.504       .  S
Cr1161     O1164   1.770       .  S
Cr1162     O1164   1.771       .  S
Cr1163     O1164   1.771       .  S
O1165     Cr1183   2.025       .  S
O1165      C1173   1.268       .  A
O1166     Cr1183   2.000       .  S
O1166      C1167   1.261       .  A
C1167      O1168   1.263       .  A
C1167      C2005   1.487       .  S
O1168     Cr1184   1.974       .  S
O1169     Cr1184   1.984       .  S
O1169      C1170   1.256       .  A
C1170      O1171   1.250       .  A
C1170      C2053   1.457       .  S
O1171     Cr1185   1.960       .  S
O1172     Cr1185   2.011       .  S
O1172      C1173   1.267       .  A
C1173      C2037   1.518       .  S
O1174     Cr1183   2.040       .  S
O1174      C1182   1.272       .  A
O1175     Cr1183   2.030       .  S
O1175      C1176   1.279       .  A
C1176      O1177   1.262       .  A
C1176      C2181   1.490       .  S
O1177     Cr1184   1.989       .  S
O1178     Cr1184   1.981       .  S
O1178      C1179   1.264       .  A
C1179      O1180   1.270       .  A
C1179      C1986   1.486       .  S
O1180     Cr1185   2.010       .  S
O1181     Cr1185   1.967       .  S
O1181      C1182   1.256       .  A
C1182      C2018   1.504       .  S
Cr1183     O1186   1.769       .  S
Cr1184     O1186   1.768       .  S
Cr1185     O1186   1.767       .  S
O1187     Cr1205   2.073       .  S
O1187      C1195   1.286       .  A
O1188     Cr1205   1.975       .  S
O1188      C1189   1.258       .  A
C1189      O1190   1.260       .  A
C1189      C1957   1.469       .  S
O1190     Cr1206   1.990       .  S
O1191     Cr1206   1.982       .  S
O1191      C1192   1.256       .  A
C1192      O1193   1.255       .  A
C1192      C1941   1.451       .  S
O1193     Cr1207   1.945       .  S
O1194     Cr1207   1.963       .  S
O1194      C1195   1.259       .  A
C1195      C1922   1.514       .  S
O1196     Cr1205   2.022       .  S
O1196      C1204   1.264       .  A
O1197     Cr1205   2.057       .  S
O1197      C1198   1.278       .  A
C1198      O1199   1.251       .  A
C1198      C2130   1.482       .  S
O1199     Cr1206   1.943       .  S
O1200     Cr1206   1.989       .  S
O1200      C1201   1.265       .  A
C1201      O1202   1.267       .  A
C1201      C1970   1.475       .  S
O1202     Cr1207   1.989       .  S
O1203     Cr1207   1.977       .  S
O1203      C1204   1.254       .  A
C1204      C2021   1.486       .  S
Cr1205     O1208   1.771       .  S
Cr1206     O1208   1.773       .  S
Cr1207     O1208   1.765       .  S
O1209     Cr1227   2.001       .  S
O1209      C1217   1.261       .  A
O1210     Cr1227   1.971       .  S
O1210      C1211   1.257       .  A
C1211      O1212   1.251       .  A
C1211      C1893   1.485       .  S
O1212     Cr1228   1.948       .  S
O1213     Cr1228   1.977       .  S
O1213      C1214   1.259       .  A
C1214      O1215   1.266       .  A
C1214      C1989   1.485       .  S
O1215     Cr1229   2.012       .  S
O1216     Cr1229   2.017       .  S
O1216      C1217   1.269       .  A
C1217      C1906   1.517       .  S
O1218     Cr1227   1.972       .  S
O1218      C1226   1.254       .  A
O1219      C1220   1.261       .  A
C1220      O1221   1.266       .  A
C1220      C2002   1.490       .  S
O1222     Cr1228   1.963       .  S
O1222      C1223   1.254       .  A
C1223      O1224   1.278       .  A
C1223      C1861   1.485       .  S
O1224     Cr1229   2.034       .  S
O1225     Cr1229   2.045       .  S
O1225      C1226   1.273       .  A
C1226      C1874   1.510       .  S
Cr1227     O1230   1.784       .  S
Cr1228     O1230   1.776       .  S
Cr1229     O1230   1.778       .  S
O1231     Cr1249   1.967       .  S
O1231      C1239   1.259       .  A
O1232     Cr1249   1.961       .  S
O1232      C1233   1.261       .  A
C1233      O1234   1.256       .  A
C1233      C1826   1.447       .  S
O1234     Cr1250   1.974       .  S
O1235     Cr1250   1.985       .  S
O1235      C1236   1.254       .  A
C1236      O1237   1.255       .  A
C1236      C1973   1.469       .  S
O1237     Cr1251   1.977       .  S
O1238     Cr1251   2.067       .  S
O1238      C1239   1.282       .  A
C1239      C1813   1.525       .  S
O1241      C1242   1.261       .  A
C1242      O1243   1.261       .  A
C1242      C1954   1.471       .  S
O1244     Cr1250   1.949       .  S
O1244      C1245   1.255       .  A
C1245      O1246   1.283       .  A
C1245      C1842   1.490       .  S
O1246     Cr1251   2.066       .  S
O1247     Cr1251   2.019       .  S
O1247      C1248   1.267       .  A
C1248      C1877   1.492       .  S
Cr1249     O1252   1.772       .  S
Cr1250     O1252   1.778       .  S
Cr1251     O1252   1.773       .  S
O1253     Cr1271   2.006       .  S
O1253      C1261   1.264       .  A
O1254     Cr1271   1.963       .  S
O1254      C1255   1.251       .  A
C1255      O1256   1.248       .  A
C1255      C1781   1.449       .  S
O1256     Cr1272   1.956       .  S
O1257     Cr1272   1.984       .  S
O1257      C1258   1.266       .  A
C1258      O1259   1.265       .  A
C1258      C2149   1.498       .  S
O1259     Cr1273   2.004       .  S
O1260     Cr1273   2.022       .  S
O1260      C1261   1.268       .  A
C1261      C1794   1.521       .  S
O1262     Cr1271   1.965       .  S
O1262      C1270   1.256       .  A
O1263      C1264   1.264       .  A
C1264      O1265   1.268       .  A
C1264      C2162   1.490       .  S
O1266     Cr1272   1.944       .  S
O1266      C1267   1.251       .  A
C1267      O1268   1.280       .  A
C1267      C1858   1.487       .  S
O1268     Cr1273   2.046       .  S
O1269     Cr1273   2.052       .  S
O1269      C1270   1.275       .  A
C1270      C1765   1.505       .  S
Cr1271     O1274   1.771       .  S
Cr1272     O1274   1.776       .  S
Cr1273     O1274   1.769       .  S
O1275     Cr1293   1.993       .  S
O1275      C1283   1.257       .  A
O1276     Cr1293   1.971       .  S
O1276      C1277   1.253       .  A
C1277      O1278   1.252       .  A
C1277      C1730   1.457       .  S
O1278     Cr1294   1.973       .  S
O1279     Cr1294   1.977       .  S
O1279      C1280   1.262       .  A
C1280      O1281   1.268       .  A
C1280      C2117   1.472       .  S
O1281     Cr1295   2.016       .  S
O1282     Cr1295   2.033       .  S
O1282      C1283   1.272       .  A
C1283      C1746   1.517       .  S
O1285      C1286   1.264       .  A
C1286      O1287   1.265   1_655  A
C1286      C2101   1.475       .  S
O1288     Cr1294   1.971       .  S
O1288      C1289   1.255       .  A
C1289      O1290   1.277       .  A
C1289      C1845   1.484       .  S
O1290     Cr1295   2.039       .  S
O1291     Cr1295   2.042       .  S
O1291      C1292   1.272       .  A
C1292      C1762   1.515       .  S
Cr1293     O1296   1.769       .  S
Cr1294     O1296   1.778       .  S
Cr1295     O1296   1.765       .  S
O1297     Cr1315   1.957       .  S
O1297      C1305   1.261       .  A
O1298     Cr1315   1.937       .  S
O1298      C1299   1.246       .  A
C1299      O1300   1.255       .  A
C1299      C2229   1.437       .  S
O1300     Cr1316   1.982       .  S
O1301     Cr1316   2.001       .  S
O1301      C1302   1.262       .  A
C1302      O1303   1.254       .  A
C1302      C1666   1.487       .  S
O1303     Cr1317   1.959       .  S
O1304     Cr1317   2.085       .  S
O1304      C1305   1.290       .  A
C1305      C1797   1.526       .  S
O1306     Cr1315   1.973       .  S
O1306      C1314   1.249       .  A
O1307     Cr1315   1.992       .  S
O1307      C1308   1.272       .  A
C1308      O1309   1.272       .  A
C1308      C1685   1.482       .  S
O1309     Cr1316   2.005       .  S
O1310     Cr1316   1.949       .  S
O1310      C1311   1.255       .  A
C1311      O1312   1.281       .  A
C1311      C1698   1.503       .  S
O1312     Cr1317   2.055       .  S
O1313     Cr1317   2.030       .  S
O1313      C1314   1.262       .  A
C1314      C1717   1.491       .  S
Cr1315     O1318   1.780       .  S
Cr1316     O1318   1.780       .  S
Cr1317     O1318   1.773       .  S
O1319     Cr1337   2.001       .  S
O1319      C1327   1.261       .  A
O1320     Cr1337   1.969       .  S
O1320      C1321   1.252       .  A
C1321      O1322   1.253       .  A
C1321      C2085   1.457       .  S
O1322     Cr1338   1.970       .  S
O1323     Cr1338   1.971       .  S
O1323      C1324   1.260       .  A
C1324      O1325   1.267       .  A
C1324      C1637   1.474       .  S
O1325     Cr1339   1.999       .  S
O1326     Cr1339   2.020       .  S
O1326      C1327   1.270       .  A
C1327      C1749   1.517       .  S
O1328     Cr1337   1.973       .  S
O1328      C1336   1.258       .  A
O1329     Cr1337   1.997       .  S
O1329      C1330   1.268       .  A
C1330      O1331   1.263       .  A
C1330      C1618   1.480       .  S
O1331     Cr1338   1.974       .  S
O1332     Cr1338   1.975       .  S
O1332      C1333   1.257       .  A
C1333      O1334   1.279       .  A
C1333      C1653   1.498       .  S
O1334     Cr1339   2.039       .  S
O1335     Cr1339   2.038       .  S
O1335      C1336   1.271       .  A
C1336      C1714   1.507       .  S
Cr1337     O1340   1.769       .  S
Cr1338     O1340   1.771       .  S
Cr1339     O1340   1.764       .  S
O1341     Cr1359   1.995       .  S
O1341      C1349   1.260       .  A
O1342     Cr1359   1.967       .  S
O1342      C1343   1.250       .  A
C1343      O1344   1.249       .  A
C1343      C2050   1.459       .  S
O1344     Cr1360   1.972       .  S
O1345     Cr1360   1.979       .  S
O1345      C1346   1.266       .  A
C1346      O1347   1.270       .  A
C1346      C1573   1.484       .  S
O1347     Cr1361   2.004       .  S
O1348     Cr1361   2.035       .  S
O1348      C1349   1.274       .  A
C1349      C1909   1.521       .  S
O1350     Cr1359   1.968       .  S
O1350      C1358   1.256       .  A
O1351     Cr1359   1.986       .  S
O1351      C1352   1.264       .  A
C1352      O1353   1.269       .  A
C1352      C1589   1.471       .  S
O1353     Cr1360   1.989       .  S
O1354     Cr1360   1.960       .  S
O1354      C1355   1.251       .  A
C1355      O1356   1.280       .  A
C1355      C1701   1.517       .  S
O1356     Cr1361   2.063       .  S
O1357     Cr1361   2.031       .  S
O1357      C1358   1.269       .  A
C1358      C1602   1.508       .  S
Cr1359     O1362   1.767       .  S
Cr1360     O1362   1.776       .  S
Cr1361     O1362   1.765       .  S
O1363     Cr1381   2.002       .  S
O1363      C1371   1.263       .  A
O1364     Cr1381   1.967       .  S
O1364      C1365   1.252       .  A
C1365      O1366   1.254       .  A
C1365      C1938   1.463       .  S
O1366     Cr1382   1.956       .  S
O1367     Cr1382   1.980       .  S
O1367      C1368   1.263       .  A
C1368      O1369   1.265       .  A
C1368      C1554   1.484       .  S
O1369     Cr1383   1.998       .  S
O1370     Cr1383   2.022       .  S
O1370      C1371   1.265       .  A
C1371      C1810   1.521       .  S
O1372     Cr1381   1.955       .  S
O1372      C1380   1.255       .  A
O1373     Cr1381   2.007       .  S
O1373      C1374   1.267       .  A
C1374      O1375   1.268       .  A
C1374      C1538   1.486       .  S
O1375     Cr1382   1.991       .  S
O1376     Cr1382   1.967       .  S
O1376      C1377   1.257       .  A
C1377      O1378   1.279       .  A
C1377      C1650   1.497       .  S
O1378     Cr1383   2.036       .  S
O1379     Cr1383   2.043       .  S
O1379      C1380   1.274       .  A
C1380      C1605   1.498       .  S
Cr1381     O1384   1.778       .  S
Cr1382     O1384   1.764       .  S
Cr1383     O1384   1.772       .  S
O1385     Cr1403   2.031       .  S
O1385      C1393   1.268       .  A
O1386     Cr1403   2.010       .  S
O1386      C1387   1.266       .  A
C1387      O1388   1.266       .  A
C1387      C1682   1.504       .  S
O1388     Cr1404   1.986       .  S
O1389     Cr1404   1.975       .  S
O1389      C1390   1.257       .  A
C1390      O1391   1.253       .  A
C1390      C1778   1.458       .  S
O1391     Cr1405   1.964       .  S
O1392     Cr1405   1.997       .  S
O1392      C1393   1.261       .  A
C1393      C2213   1.517       .  S
O1394     Cr1403   2.056       .  S
O1394      C1402   1.276       .  A
O1395     Cr1403   2.039       .  S
O1395      C1396   1.279       .  A
C1396      O1397   1.257       .  A
C1396      C1506   1.505       .  S
O1397     Cr1404   1.965       .  S
O1398      C1399   1.264   1_455  A
C1399      O1400   1.267       .  A
C1399      C1669   1.495       .  S
C1402      C1525   1.510       .  S
Cr1403     O1406   1.764       .  S
Cr1404     O1406   1.768       .  S
Cr1405     O1406   1.770       .  S
O1407     Cr1425   2.022       .  S
O1407      C1415   1.267       .  A
O1408     Cr1425   2.003       .  S
O1408      C1409   1.267       .  A
C1409      O1410   1.260       .  A
C1409      C1621   1.481       .  S
O1410     Cr1426   1.972       .  S
O1411     Cr1426   1.979       .  S
O1411      C1412   1.255       .  A
C1412      O1413   1.250       .  A
C1412      C1733   1.456       .  S
O1413     Cr1427   1.961       .  S
O1414     Cr1427   2.002       .  S
O1414      C1415   1.264       .  A
C1415      C2069   1.524       .  S
O1416     Cr1425   2.056       .  S
O1416      C1424   1.275       .  A
O1417     Cr1425   2.041       .  S
O1417      C1418   1.282       .  A
C1418      O1419   1.260       .  A
C1418      C1490   1.505       .  S
O1419     Cr1426   1.979       .  S
O1420      C1421   1.264       .  A
C1421      O1422   1.267       .  A
C1421      C1634   1.473       .  S
O1423     Cr1427   1.967       .  S
O1423      C1424   1.257       .  A
C1424      C1522   1.517       .  S
Cr1425     O1428   1.768       .  S
Cr1426     O1428   1.771       .  S
Cr1427     O1428   1.774       .  S
O1429     Cr1447   2.040       .  S
O1429      C1437   1.275       .  A
O1430     Cr1447   1.994       .  S
O1430      C1431   1.256       .  A
C1431      O1432   1.265       .  A
C1431      C1586   1.478       .  S
O1432     Cr1448   1.987       .  S
O1433     Cr1448   1.973       .  S
O1433      C1434   1.248       .  A
C1434      O1435   1.246       .  A
C1434      C1890   1.484       .  S
O1435     Cr1449   1.951       .  S
O1436     Cr1449   2.003       .  S
O1436      C1437   1.267       .  A
C1437      C2034   1.533       .  S
O1438     Cr1447   2.033       .  S
O1438      C1446   1.268       .  A
O1439     Cr1447   2.052       .  S
O1439      C1440   1.285       .  A
C1440      O1441   1.258       .  A
C1440      C1509   1.515       .  S
O1441     Cr1448   1.963       .  S
O1442      C1443   1.269   1_455  A
C1443      O1444   1.265       .  A
C1443      C1570   1.494       .  S
C1446      C1477   1.512       .  S
Cr1447     O1450   1.770       .  S
Cr1448     O1450   1.782       .  S
Cr1449     O1450   1.774       .  S
O1451     Cr1469   2.030       .  S
O1451      C1459   1.273       .  A
O1452     Cr1469   2.002       .  S
O1452      C1453   1.267       .  A
C1453      O1454   1.265       .  A
C1453      C1541   1.478       .  S
O1454     Cr1470   1.988       .  S
O1455     Cr1470   1.969       .  S
O1455      C1456   1.246       .  A
C1456      O1457   1.250       .  A
C1456      C1829   1.479       .  S
O1457     Cr1471   1.958       .  S
O1458     Cr1471   2.011       .  S
O1458      C1459   1.264       .  A
C1459      C1925   1.528       .  S
O1460     Cr1469   2.041       .  S
O1460      C1468   1.271       .  A
O1461     Cr1469   2.054       .  S
O1461      C1462   1.281       .  A
C1462      O1463   1.256       .  A
C1462      C1493   1.509       .  S
O1463     Cr1470   1.970       .  S
O1464      C1465   1.268       .  A
C1465      O1466   1.268       .  A
C1465      C1557   1.486       .  S
O1467     Cr1471   1.959       .  S
O1467      C1468   1.253       .  A
C1468      C1474   1.494       .  S
Cr1469     O1472   1.771       .  S
Cr1470     O1472   1.782       .  S
Cr1471     O1472   1.775       .  S
C1473      C1474   1.402       .  A
C1473      C1478   1.417       .  A
C1473      H1480   1.083       .  S
C1475      C1476   1.413       .  A
C1475      C1482   1.520       .  S
C1476      C1477   1.409       .  A
C1476      H1481   1.082       .  S
C1478      C1479   1.522       .  S
C1479      F1483   1.385       .  S
C1479      F1484   1.383       .  S
C1479      F1485   1.384       .  S
C1482      F1486   1.382       .  S
C1482      F1487   1.383       .  S
C1482      F1488   1.385       .  S
C1489      C1490   1.418       .  A
C1489      C1494   1.419       .  A
C1489      H1496   1.082       .  S
C1490      C1491   1.413       .  A
C1491      C1492   1.416       .  A
C1491      C1498   1.517       .  S
C1492      C1493   1.419       .  A
C1492      H1497   1.083       .  S
C1493      C1494   1.414       .  A
C1495      F1499   1.384       .  S
C1495      F1500   1.383       .  S
C1495      F1501   1.382       .  S
C1498      F1502   1.384       .  S
C1498      F1503   1.383       .  S
C1498      F1504   1.385       .  S
C1505      C1506   1.421   1_545  A
C1505      C1510   1.417       .  A
C1505      H1512   1.083       .  S
C1506      C1507   1.410       .  A
C1507      C1508   1.412       .  A
C1508      C1509   1.426   1_565  A
C1509      C1510   1.413       .  A
C1510      C1511   1.517       .  S
C1511      F1515   1.385       .  S
C1511      F1516   1.383       .  S
C1511      F1517   1.383       .  S
C1514      F1518   1.383       .  S
C1514      F1519   1.384       .  S
C1514      F1520   1.384       .  S
C1521      C1526   1.418       .  A
C1521      H1528   1.083       .  S
C1522      C1523   1.423       .  A
C1523      C1524   1.418       .  A
C1523      C1530   1.518       .  S
C1524      H1529   1.082       .  S
C1525      C1526   1.421       .  A
C1526      C1527   1.519       .  S
C1527      F1531   1.385       .  S
C1527      F1532   1.383       .  S
C1527      F1533   1.383       .  S
C1530      F1534   1.383       .  S
C1530      F1535   1.383       .  S
C1530      F1536   1.385       .  S
C1537      C1538   1.412       .  A
C1537      C1542   1.410       .  A
C1537      H1544   1.083       .  S
C1538      C1539   1.415       .  A
C1539      C1540   1.405       .  A
C1539      C1546   1.516       .  S
C1540      C1541   1.405       .  A
C1540      H1545   1.084       .  S
C1541      C1542   1.412       .  A
C1542      C1543   1.518       .  S
C1543      F1547   1.383       .  S
C1543      F1548   1.383       .  S
C1543      F1549   1.384       .  S
C1546      F1550   1.384       .  S
C1546      F1551   1.379       .  S
C1546      F1552   1.385       .  S
C1553      C1554   1.409       .  A
C1553      C1558   1.407       .  A
C1553      H1560   1.082       .  S
C1554      C1555   1.416       .  A
C1555      C1556   1.403       .  A
C1555      C1562   1.521       .  S
C1556      C1557   1.410       .  A
C1556      H1561   1.082       .  S
C1557      C1558   1.416       .  A
C1558      C1559   1.519       .  S
C1559      F1563   1.385       .  S
C1559      F1564   1.383       .  S
C1559      F1565   1.383       .  S
C1562      F1566   1.384       .  S
C1562      F1567   1.381       .  S
C1562      F1568   1.383       .  S
C1569      C1570   1.414       .  A
C1569      C1574   1.405   1_545  A
C1569      H1576   1.082       .  S
C1570      C1571   1.418   1_545  A
C1571      C1572   1.406       .  A
C1571      C1578   1.517       .  S
C1572      C1573   1.408       .  A
C1572      H1577   1.082       .  S
C1573      C1574   1.414       .  A
C1574      C1575   1.521       .  S
C1575      F1579   1.384   1_565  S
C1575      F1580   1.384       .  S
C1575      F1581   1.382   1_565  S
C1578      F1582   1.382       .  S
C1578      F1583   1.384   1_565  S
C1578      F1584   1.385       .  S
C1585      C1586   1.403   1_565  A
C1585      C1590   1.397       .  A
C1585      H1592   1.084       .  S
C1586      C1587   1.432       .  A
C1587      C1588   1.405       .  A
C1587      C1594   1.523       .  S
C1588      C1589   1.396   1_545  A
C1588      H1593   1.085       .  S
C1589      C1590   1.413       .  A
C1590      C1591   1.516       .  S
C1591      F1595   1.385       .  S
C1591      F1596   1.382       .  S
C1591      F1597   1.383       .  S
C1594      F1598   1.384       .  S
C1594      F1599   1.373       .  S
C1594      F1600   1.383       .  S
C1601      C1602   1.413       .  A
C1601      C1606   1.412       .  A
C1601      H1608   1.076       .  S
C1602      C1603   1.423       .  A
C1603      C1604   1.413       .  A
C1603      C1610   1.519       .  S
C1604      C1605   1.410       .  A
C1604      H1609   1.083       .  S
C1605      C1606   1.416       .  A
C1606      C1607   1.519       .  S
C1607      F1611   1.384       .  S
C1607      F1612   1.383       .  S
C1607      F1613   1.383       .  S
C1610      F1614   1.383       .  S
C1610      F1615   1.383       .  S
C1610      F1616   1.385       .  S
C1617      C1618   1.405       .  A
C1617      C1622   1.403       .  A
C1617      H1624   1.083       .  S
C1618      C1619   1.419       .  A
C1619      C1620   1.404       .  A
C1619      C1626   1.522       .  S
C1620      C1621   1.406       .  A
C1620      H1625   1.082       .  S
C1621      C1622   1.419       .  A
C1622      C1623   1.521       .  S
C1623      F1627   1.385       .  S
C1623      F1628   1.384       .  S
C1623      F1629   1.383       .  S
C1626      F1630   1.383       .  S
C1626      F1631   1.384       .  S
C1626      F1632   1.385       .  S
C1633      C1634   1.405       .  A
C1633      C1638   1.403       .  A
C1633      H1640   1.083       .  S
C1634      C1635   1.418       .  A
C1635      C1636   1.401       .  A
C1635      C1642   1.521       .  S
C1636      C1637   1.403       .  A
C1636      H1641   1.083       .  S
C1637      C1638   1.418       .  A
C1638      C1639   1.521       .  S
C1639      F1643   1.385       .  S
C1639      F1644   1.382       .  S
C1639      F1645   1.383       .  S
C1642      F1646   1.382       .  S
C1642      F1647   1.383       .  S
C1642      F1648   1.385       .  S
C1649      C1650   1.414       .  A
C1649      C1654   1.413       .  A
C1649      H1656   1.080       .  S
C1650      C1651   1.413       .  A
C1651      C1652   1.415       .  A
C1651      C1658   1.517       .  S
C1652      C1653   1.416       .  A
C1652      H1657   1.083       .  S
C1653      C1654   1.412       .  A
C1654      C1655   1.517       .  S
C1655      F1659   1.384       .  S
C1655      F1660   1.384       .  S
C1655      F1661   1.383       .  S
C1658      F1662   1.383       .  S
C1658      F1663   1.382       .  S
C1658      F1664   1.384       .  S
C1665      C1666   1.403   1_565  A
C1665      C1670   1.410       .  A
C1665      H1672   1.083       .  S
C1666      C1667   1.421       .  A
C1667      C1668   1.403       .  A
C1667      C1674   1.523       .  S
C1668      C1669   1.406   1_545  A
C1668      H1673   1.082       .  S
C1669      C1670   1.425       .  A
C1670      C1671   1.520       .  S
C1671      F1675   1.385       .  S
C1671      F1676   1.383       .  S
C1671      F1677   1.382       .  S
C1674      F1678   1.383       .  S
C1674      F1679   1.382       .  S
C1674      F1680   1.385       .  S
C1681      C1682   1.412   1_545  A
C1681      C1686   1.412       .  A
C1681      H1688   1.082       .  S
C1682      C1683   1.431       .  A
C1683      C1684   1.406   1_565  A
C1683      C1690   1.522       .  S
C1684      C1685   1.399       .  A
C1684      H1689   1.083   1_545  S
C1685      C1686   1.415       .  A
C1686      C1687   1.517       .  S
C1687      F1691   1.384       .  S
C1687      F1692   1.382       .  S
C1687      F1693   1.382       .  S
C1690      F1694   1.383       .  S
C1690      F1695   1.382       .  S
C1690      F1696   1.385       .  S
C1697      C1698   1.419   1_565  A
C1697      C1702   1.420       .  A
C1697      H1704   1.083       .  S
C1698      C1699   1.408       .  A
C1699      C1700   1.410       .  A
C1699      C1706   1.519       .  S
C1700      C1701   1.425   1_545  A
C1700      H1705   1.081       .  S
C1701      C1702   1.415       .  A
C1702      C1703   1.516       .  S
C1703      F1707   1.385       .  S
C1703      F1708   1.383       .  S
C1703      F1709   1.383       .  S
C1706      F1710   1.383       .  S
C1706      F1711   1.383       .  S
C1706      F1712   1.385       .  S
C1713      C1714   1.413       .  A
C1713      C1718   1.415       .  A
C1713      H1720   1.083       .  S
C1714      C1715   1.425       .  A
C1715      C1716   1.414       .  A
C1715      C1722   1.520       .  S
C1716      C1717   1.405       .  A
C1716      H1721   1.083       .  S
C1717      C1718   1.412       .  A
C1718      C1719   1.515       .  S
C1719      F1723   1.385       .  S
C1719      F1724   1.383       .  S
C1719      F1725   1.383       .  S
C1722      F1726   1.383       .  S
C1722      F1727   1.383       .  S
C1722      F1728   1.384       .  S
C1729      C1734   1.395       .  A
C1731      C1732   1.401   1_455  A
C1732      C1733   1.406       .  A
C1732      H1737   1.083       .  S
C1733      C1734   1.408       .  A
C1734      C1735   1.516       .  S
C1735      F1739   1.384       .  S
C1735      F1740   1.383       .  S
C1738      F1743   1.384       .  S
C1745      C1746   1.404       .  A
C1745      C1750   1.418       .  A
C1745      H1752   1.081       .  S
C1746      C1747   1.432       .  A
C1747      C1748   1.417       .  A
C1747      C1754   1.523       .  S
C1748      C1749   1.406       .  A
C1748      H1753   1.082       .  S
C1749      C1750   1.431       .  A
C1750      C1751   1.520       .  S
C1751      F1755   1.385       .  S
C1751      F1756   1.384       .  S
C1751      F1757   1.379       .  S
C1754      F1758   1.383       .  S
C1754      F1759   1.377       .  S
C1754      F1760   1.385       .  S
C1761      C1766   1.416       .  A
C1761      H1768   1.082       .  S
C1762      C1763   1.425       .  A
C1763      C1764   1.415       .  A
C1763      C1770   1.521       .  S
C1764      H1769   1.080       .  S
C1765      C1766   1.419       .  A
C1766      C1767   1.519       .  S
C1767      F1771   1.385       .  S
C1767      F1772   1.382       .  S
C1767      F1773   1.383       .  S
C1770      F1774   1.383       .  S
C1770      F1775   1.383       .  S
C1770      F1776   1.385       .  S
C1777      C1782   1.395   1_455  A
C1777      H1784   1.083       .  S
C1778      C1779   1.412   1_565  A
C1779      C1780   1.397       .  A
C1779      C1786   1.519       .  S
C1780      H1785   1.085       .  S
C1781      C1782   1.414   1_545  A
C1782      C1783   1.522       .  S
C1783      F1787   1.385       .  S
C1783      F1788   1.382       .  S
C1783      F1789   1.384       .  S
C1786      F1790   1.384       .  S
C1786      F1791   1.383       .  S
C1786      F1792   1.382       .  S
C1793      C1794   1.413       .  A
C1793      C1798   1.422       .  A
C1793      H1800   1.082       .  S
C1794      C1795   1.420       .  A
C1795      C1796   1.419       .  A
C1795      C1802   1.517       .  S
C1796      C1797   1.416       .  A
C1796      H1801   1.082       .  S
C1797      C1798   1.424       .  A
C1798      C1799   1.513       .  S
C1799      F1803   1.385       .  S
C1799      F1804   1.377       .  S
C1799      F1805   1.382       .  S
C1802      F1806   1.382       .  S
C1802      F1807   1.384       .  S
C1802      F1808   1.385       .  S
C1809      C1810   1.414       .  A
C1809      C1814   1.422   1_556  A
C1809      H1816   1.082       .  S
C1810      C1811   1.422       .  A
C1811      C1812   1.419       .  A
C1811      C1818   1.519       .  S
C1812      C1813   1.416   1_556  A
C1812      H1817   1.082       .  S
C1813      C1814   1.424       .  A
C1814      C1815   1.516       .  S
C1815      F1819   1.379       .  S
C1815      F1820   1.382       .  S
C1815      F1821   1.385       .  S
C1818      F1822   1.383       .  S
C1818      F1823   1.384       .  S
C1818      F1824   1.385       .  S
C1825      C1826   1.397   1_556  A
C1825      H1832   1.085       .  S
C1827      C1828   1.400   1_454  A
C1827      C1834   1.516       .  S
C1828      C1829   1.411       .  A
C1828      H1833   1.079       .  S
C1829      C1830   1.427       .  A
C1831      F1835   1.385       .  S
C1831      F1837   1.382       .  S
C1834      F1838   1.382       .  S
C1834      F1840   1.385       .  S
C1841      C1842   1.408       .  A
C1841      C1846   1.414       .  A
C1841      H1848   1.082       .  S
C1842      C1843   1.418       .  A
C1843      C1844   1.413       .  A
C1844      C1845   1.408       .  A
C1845      C1846   1.415       .  A
C1846      C1847   1.516       .  S
C1847      F1851   1.385       .  S
C1847      F1852   1.383       .  S
C1847      F1853   1.383       .  S
C1850      F1854   1.382   1_455  S
C1850      F1855   1.383       .  S
C1850      F1856   1.384   1_455  S
C1857      C1858   1.414   1_565  A
C1857      C1862   1.409       .  A
C1857      H1864   1.083       .  S
C1858      C1859   1.411       .  A
C1859      C1860   1.416       .  A
C1859      C1866   1.515       .  S
C1860      C1861   1.414   1_545  A
C1860      H1865   1.083       .  S
C1861      C1862   1.411       .  A
C1862      C1863   1.518       .  S
C1863      F1867   1.385       .  S
C1863      F1868   1.383       .  S
C1863      F1869   1.382       .  S
C1866      F1871   1.383       .  S
C1866      F1872   1.385       .  S
C1873      C1874   1.407       .  A
C1873      C1878   1.413       .  A
C1873      H1880   1.084       .  S
C1875      C1876   1.414       .  A
C1875      C1882   1.515       .  S
C1876      C1877   1.399       .  A
C1876      H1881   1.085       .  S
C1878      C1879   1.514       .  S
C1879      F1883   1.384       .  S
C1879      F1884   1.382       .  S
C1879      F1885   1.381       .  S
C1882      F1886   1.381       .  S
C1882      F1887   1.381       .  S
C1882      F1888   1.384       .  S
C1889      C1890   1.414   1_565  A
C1889      C1894   1.396       .  A
C1889      H1896   1.084       .  S
C1891      C1892   1.397   1_455  A
C1891      C1898   1.522       .  S
C1892      C1893   1.420   1_545  A
C1892      H1897   1.082       .  S
C1894      C1895   1.512       .  S
C1895      F1899   1.382       .  S
C1895      F1900   1.381       .  S
C1895      F1901   1.383       .  S
C1898      F1902   1.383       .  S
C1898      F1903   1.384       .  S
C1898      F1904   1.384       .  S
C1905      C1906   1.404       .  A
C1905      C1910   1.416       .  A
C1905      H1912   1.083       .  S
C1906      C1907   1.428       .  A
C1907      C1908   1.420   1_554  A
C1907      C1914   1.518       .  S
C1908      C1909   1.408       .  A
C1908      H1913   1.083       .  S
C1909      C1910   1.434   1_556  A
C1910      C1911   1.522       .  S
C1911      F1915   1.385       .  S
C1911      F1916   1.383   1_554  S
C1911      F1917   1.377   1_554  S
C1914      F1918   1.384       .  S
C1914      F1919   1.376       .  S
C1914      F1920   1.385   1_554  S
C1921      C1922   1.402       .  A
C1921      C1926   1.423   1_554  A
C1921      H1928   1.082       .  S
C1922      C1923   1.425   1_554  A
C1923      C1924   1.415       .  A
C1923      C1930   1.517       .  S
C1924      C1925   1.407       .  A
C1924      H1929   1.084       .  S
C1925      C1926   1.438       .  A
C1926      C1927   1.516   1_556  S
C1927      F1931   1.385       .  S
C1927      F1932   1.374   1_554  S
C1927      F1933   1.383   1_554  S
C1930      F1934   1.381       .  S
C1930      F1935   1.383   1_556  S
C1930      F1936   1.384       .  S
C1937      C1938   1.409   1_554  A
C1937      C1942   1.406       .  A
C1937      H1944   1.083       .  S
C1938      C1939   1.414       .  A
C1939      C1940   1.385       .  A
C1939      C1946   1.520       .  S
C1940      C1941   1.398   1_556  A
C1940      H1945   1.084       .  S
C1941      C1942   1.412       .  A
C1942      C1943   1.516       .  S
C1943      F1947   1.384       .  S
C1943      F1948   1.383       .  S
C1943      F1949   1.382       .  S
C1946      F1950   1.383       .  S
C1946      F1951   1.382       .  S
C1946      F1952   1.385       .  S
C1953      C1954   1.403       .  A
C1953      C1958   1.401       .  A
C1953      H1960   1.083       .  S
C1954      C1955   1.417       .  A
C1955      C1956   1.406       .  A
C1955      C1962   1.518       .  S
C1956      C1957   1.402       .  A
C1956      H1961   1.083       .  S
C1957      C1958   1.416       .  A
C1958      C1959   1.520       .  S
C1959      F1963   1.385       .  S
C1959      F1964   1.382       .  S
C1959      F1965   1.380       .  S
C1962      F1966   1.383       .  S
C1962      F1967   1.380       .  S
C1962      F1968   1.385       .  S
C1969      C1970   1.406       .  A
C1969      C1974   1.401       .  A
C1969      H1976   1.084       .  S
C1970      C1971   1.417       .  A
C1971      C1972   1.407       .  A
C1971      C1978   1.518       .  S
C1972      C1973   1.403       .  A
C1972      H1977   1.084       .  S
C1973      C1974   1.414       .  A
C1974      C1975   1.520       .  S
C1975      F1979   1.385       .  S
C1975      F1980   1.381       .  S
C1975      F1981   1.382       .  S
C1978      F1982   1.381       .  S
C1978      F1983   1.383       .  S
C1978      F1984   1.385       .  S
C1985      C1986   1.404       .  A
C1985      C1990   1.406       .  A
C1985      H1992   1.083       .  S
C1986      C1987   1.421   1_545  A
C1987      C1988   1.409       .  A
C1987      C1994   1.520       .  S
C1988      C1989   1.405       .  A
C1988      H1993   1.083       .  S
C1989      C1990   1.420   1_565  A
C1990      C1991   1.520       .  S
C1991      F1995   1.385       .  S
C1991      F1996   1.382       .  S
C1991      F1997   1.383       .  S
C1994      F1998   1.383       .  S
C1994      F1999   1.383       .  S
C1994      F2000   1.385       .  S
C2001      C2002   1.406   1_545  A
C2001      C2006   1.406       .  A
C2001      H2008   1.082       .  S
C2002      C2003   1.427       .  A
C2003      C2004   1.400       .  A
C2003      C2010   1.524       .  S
C2004      C2005   1.402   1_565  A
C2004      H2009   1.081       .  S
C2005      C2006   1.424       .  A
C2006      C2007   1.523       .  S
C2007      F2011   1.385       .  S
C2007      F2012   1.382       .  S
C2007      F2013   1.379       .  S
C2010      F2014   1.382       .  S
C2010      F2015   1.378       .  S
C2010      F2016   1.385       .  S
C2017      C2018   1.414       .  A
C2017      C2022   1.413       .  A
C2017      H2024   1.083       .  S
C2018      C2019   1.424       .  A
C2019      C2020   1.413       .  A
C2019      C2026   1.520       .  S
C2020      C2021   1.405       .  A
C2020      H2025   1.083       .  S
C2021      C2022   1.411       .  A
C2022      C2023   1.516       .  S
C2023      F2027   1.384       .  S
C2023      F2028   1.383       .  S
C2023      F2029   1.383       .  S
C2026      F2030   1.383       .  S
C2026      F2031   1.383       .  S
C2026      F2032   1.384       .  S
C2033      C2034   1.417       .  A
C2033      C2038   1.421   1_556  A
C2033      H2040   1.084       .  S
C2034      C2035   1.427       .  A
C2035      C2036   1.419   1_556  A
C2035      C2042   1.510       .  S
C2036      C2037   1.409       .  A
C2036      H2041   1.082       .  S
C2037      C2038   1.422       .  A
C2038      C2039   1.516       .  S
C2039      F2043   1.384       .  S
C2039      F2044   1.381       .  S
C2039      F2045   1.382       .  S
C2042      F2046   1.383       .  S
C2042      F2047   1.380       .  S
C2042      F2048   1.385       .  S
C2049      C2050   1.405       .  A
C2049      C2054   1.397       .  A
C2049      H2056   1.085       .  S
C2050      C2051   1.412   1_565  A
C2051      C2052   1.400   1_556  A
C2051      C2058   1.519       .  S
C2052      C2053   1.406       .  A
C2052      H2057   1.083       .  S
C2053      C2054   1.410   1_544  A
C2054      C2055   1.517   1_556  S
C2055      F2059   1.384   1_554  S
C2055      F2060   1.383       .  S
C2055      F2061   1.383       .  S
C2058      F2062   1.382       .  S
C2058      F2063   1.383       .  S
C2058      F2064   1.385       .  S
C2065      C2066   1.413       .  A
C2065      C2070   1.419       .  A
C2065      H2072   1.082       .  S
C2066      C2067   1.424       .  A
C2067      C2068   1.422       .  A
C2067      C2074   1.517       .  S
C2068      C2069   1.415       .  A
C2068      H2073   1.082       .  S
C2069      C2070   1.424       .  A
C2070      C2071   1.517       .  S
C2071      F2075   1.385       .  S
C2071      F2076   1.383       .  S
C2071      F2077   1.381       .  S
C2074      F2078   1.384       .  S
C2074      F2079   1.381       .  S
C2074      F2080   1.385       .  S
C2081      C2082   1.404       .  A
C2081      C2086   1.396       .  A
C2081      H2088   1.085       .  S
C2082      C2083   1.413       .  A
C2083      C2084   1.398       .  A
C2083      C2090   1.517       .  S
C2084      C2085   1.404       .  A
C2084      H2089   1.085       .  S
C2085      C2086   1.412       .  A
C2086      C2087   1.517       .  S
C2087      F2091   1.384       .  S
C2087      F2092   1.383       .  S
C2087      F2093   1.383       .  S
C2090      F2094   1.384       .  S
C2090      F2095   1.383       .  S
C2090      F2096   1.384       .  S
C2097      C2098   1.408       .  A
C2097      C2102   1.405       .  A
C2097      H2104   1.082       .  S
C2098      C2099   1.418       .  A
C2099      C2100   1.402       .  A
C2099      C2106   1.521       .  S
C2100      C2101   1.405       .  A
C2100      H2105   1.084       .  S
C2101      C2102   1.415       .  A
C2102      C2103   1.520       .  S
C2103      F2107   1.385       .  S
C2103      F2108   1.382   1_655  S
C2103      F2109   1.383   1_655  S
C2106      F2110   1.383       .  S
C2106      F2111   1.383       .  S
C2106      F2112   1.385       .  S
C2113      C2114   1.402       .  A
C2113      C2118   1.405       .  A
C2113      H2120   1.084       .  S
C2114      C2115   1.412       .  A
C2115      C2116   1.407       .  A
C2115      C2122   1.514       .  S
C2116      C2117   1.403       .  A
C2116      H2121   1.083       .  S
C2117      C2118   1.412       .  A
C2118      C2119   1.513       .  S
C2119      F2123   1.384       .  S
C2119      F2124   1.381       .  S
C2119      F2125   1.383       .  S
C2122      F2126   1.383       .  S
C2122      F2127   1.381       .  S
C2122      F2128   1.385       .  S
C2129      C2130   1.409       .  A
C2129      C2134   1.415       .  A
C2129      H2136   1.083       .  S
C2130      C2131   1.413       .  A
C2131      C2132   1.410       .  A
C2131      C2138   1.518       .  S
C2132      C2133   1.411       .  A
C2132      H2137   1.083       .  S
C2133      C2134   1.413       .  A
C2134      C2135   1.515       .  S
C2135      F2139   1.385       .  S
C2135      F2140   1.383       .  S
C2135      F2141   1.383       .  S
C2138      F2142   1.383       .  S
C2138      F2143   1.383       .  S
C2138      F2144   1.385       .  S
C2145      C2146   1.401       .  A
C2145      C2150   1.402   1_565  A
C2145      H2152   1.082   1_565  S
C2146      C2147   1.414       .  A
C2147      C2148   1.411       .  A
C2147      C2154   1.517       .  S
C2148      C2149   1.412   1_565  A
C2148      H2153   1.082       .  S
C2149      C2150   1.430       .  A
C2150      C2151   1.527       .  S
C2151      F2155   1.385       .  S
C2151      F2156   1.382       .  S
C2151      F2157   1.382       .  S
C2154      F2158   1.382       .  S
C2154      F2159   1.383       .  S
C2154      F2160   1.385       .  S
C2161      C2162   1.403   1_565  A
C2161      C2166   1.407       .  A
C2161      H2168   1.083       .  S
C2162      C2163   1.424       .  A
C2163      C2164   1.406       .  A
C2163      C2170   1.519       .  S
C2164      C2165   1.402   1_545  A
C2164      H2169   1.083       .  S
C2165      C2166   1.423       .  A
C2166      C2167   1.521       .  S
C2167      F2171   1.385       .  S
C2167      F2172   1.381       .  S
C2167      F2173   1.383       .  S
C2170      F2174   1.381       .  S
C2170      F2175   1.380       .  S
C2170      F2176   1.385       .  S
C2177      C2178   1.406       .  A
C2177      C2182   1.414   1_565  A
C2177      H2184   1.083       .  S
C2178      C2179   1.419       .  A
C2179      C2180   1.414   1_565  A
C2179      C2186   1.518       .  S
C2180      C2181   1.406       .  A
C2180      H2185   1.083       .  S
C2181      C2182   1.417       .  A
C2182      C2183   1.513       .  S
C2183      F2187   1.385       .  S
C2183      F2188   1.382       .  S
C2183      F2189   1.383       .  S
C2186      F2190   1.384       .  S
C2186      F2191   1.381       .  S
C2186      F2192   1.385       .  S
C2193      C2194   1.405       .  A
C2193      C2198   1.414       .  A
C2193      H2200   1.083       .  S
C2194      C2195   1.409       .  A
C2195      C2196   1.410       .  A
C2195      C2202   1.516       .  S
C2196      C2197   1.412       .  A
C2196      H2201   1.079       .  S
C2197      C2198   1.424       .  A
C2198      C2199   1.519       .  S
C2199      F2203   1.384       .  S
C2199      F2204   1.383       .  S
C2199      F2205   1.383       .  S
C2202      F2206   1.383       .  S
C2202      F2207   1.383       .  S
C2202      F2208   1.384       .  S
C2209      C2210   1.417       .  A
C2209      C2214   1.420       .  A
C2209      H2216   1.082       .  S
C2210      C2211   1.423       .  A
C2211      C2212   1.420       .  A
C2211      C2218   1.512       .  S
C2212      C2213   1.413       .  A
C2212      H2217   1.082       .  S
C2213      C2214   1.418       .  A
C2214      C2215   1.517       .  S
C2215      F2219   1.385       .  S
C2215      F2220   1.383       .  S
C2215      F2221   1.382       .  S
C2218      F2222   1.382       .  S
C2218      F2223   1.377       .  S
C2218      F2224   1.385       .  S
C2225      C2226   1.401   1_545  A
C2225      C2230   1.396       .  A
C2225      H2232   1.086       .  S
C2226      C2227   1.411       .  A
C2227      C2228   1.395       .  A
C2227      C2234   1.513       .  S
C2228      C2229   1.400   1_565  A
C2228      H2233   1.085       .  S
C2229      C2230   1.409       .  A
C2230      C2231   1.515       .  S
C2231      F2235   1.384       .  S
C2231      F2236   1.383       .  S
C2231      F2237   1.382       .  S
C2234      F2238   1.381       .  S
C2234      F2239   1.384       .  S
C2234      F2240   1.384       .  S
