geometry optimzed in LAMMPS
_audit_creation_date              2020-12-01 
_audit_creation_method            'lammps2cif' 
_symmetry_space_group_name_H-M    'P1' 
_symmetry_Int_Tables_number       1 
_symmetry_cell_setting            triclinic 
loop_ 
_symmetry_equiv_pos_as_xyz 
  x,y,z 
_cell_length_a                    58.89309711 
_cell_length_b                    48.16296217423355 
_cell_length_c                    28.21736992175979 
_cell_angle_alpha                 89.9880339585913 
_cell_angle_beta                  89.92312583406732 
_cell_angle_gamma                 90.05945902230614 
loop_ 
_atom_site_label 
_atom_site_type_symbol 
_atom_site_fract_x 
_atom_site_fract_y 
_atom_site_fract_z 
_atom_site_charge 
Fe1        Fe  0.37642465  0.86339846  0.64778932     1.65800
Fe2        Fe  0.34207249  0.85508912  0.55424351     1.73200
Fe3        Fe  0.37496946  0.80219127  0.58952942     1.54400
O4          O  0.40866884  0.81224897  0.60762404    -0.82100
O5          O  0.31990023  0.82458268  0.57230080    -0.80400
O6          O  0.40914936  0.85748129  0.62484459    -0.84600
O7          O  0.37948104  0.83026860  0.69603493    -0.79400
O8          O  0.38362457  0.80849248  0.52026649    -0.81200
O9          O  0.32646681  0.87953918  0.60624887    -0.83900
C10         C  0.37277808  0.80505415  0.69577239     0.96800
C11         C  0.41937512  0.83493256  0.61524728     1.04300
O12         O  0.36470054  0.84019964  0.59704662    -1.12900
O13         O  0.36342441  0.88651816  0.53459067    -0.75400
O14         O  0.37509212  0.89983590  0.60611554    -0.78800
O15         O  0.36674500  0.79288138  0.65808390    -0.79500
C16         C  0.37214389  0.90448863  0.56189376     0.95700
O17         O  0.34413141  0.86969175  0.67361026    -0.77500
O18         O  0.35321621  0.83161565  0.49610039    -0.82700
C19         C  0.32289195  0.79872662  0.56759933     0.98300
C20         C  0.36990485  0.81547208  0.48792569     1.04300
O21         O  0.34261518  0.78770352  0.56912604    -0.78300
C22         C  0.32668485  0.87790404  0.65133154     1.02600
Fe23       Fe  0.63456203  0.86195936  0.65111022     1.65800
Fe24       Fe  0.66693178  0.85505997  0.55360328     1.73200
Fe25       Fe  0.63502550  0.80146149  0.59087380     1.54400
O26         O  0.64493849  0.79120266  0.65824034    -0.82100
O27         O  0.65352863  0.83325509  0.49514460    -0.80400
O28         O  0.63239787  0.82809579  0.69782801    -0.84600
O29         O  0.60153951  0.85617370  0.63019133    -0.79400
O30         O  0.66669268  0.78720234  0.56569075    -0.81200
O31         O  0.64543206  0.88716521  0.53894264    -0.83900
C32         C  0.59117473  0.83370136  0.62070427     0.96800
C33         C  0.63916882  0.80294494  0.69656500     1.04300
O34         O  0.64549198  0.83943777  0.59854965    -1.12900
O35         O  0.68432058  0.87775645  0.60581238    -0.75400
O36         O  0.66721258  0.86840145  0.67438550    -0.78800
O37         O  0.60176954  0.81099348  0.61293391    -0.79500
C38         C  0.68442251  0.87655325  0.65103181     0.95700
O39         O  0.63497584  0.89917820  0.61186840    -0.77500
O40         O  0.68949384  0.82405422  0.56577671    -0.82700
C41         C  0.63649353  0.81724012  0.48899086     0.98300
C42         C  0.68630116  0.79825548  0.56088843     1.04300
O43         O  0.62443479  0.80897434  0.52335090    -0.78300
C44         C  0.63709455  0.90455907  0.56777775     1.02600
Fe45       Fe  0.63407472  0.64055308  0.15201388     1.65800
Fe46       Fe  0.66752474  0.64659322  0.05651310     1.73200
Fe47       Fe  0.63517178  0.70039143  0.09013749     1.54400
O48         O  0.60176833  0.69080327  0.11071900    -0.82100
O49         O  0.68990804  0.67733016  0.07124127    -0.80400
O50         O  0.60138097  0.64573136  0.12924541    -0.84600
O51         O  0.63068297  0.67500246  0.19756880    -0.79400
O52         O  0.62569930  0.69215035  0.02210587    -0.81200
O53         O  0.68356410  0.62343879  0.10973330    -0.83900
C54         C  0.63688173  0.70041218  0.19573688     0.96800
C55         C  0.59113299  0.66825723  0.11973784     1.04300
O56         O  0.64547447  0.66258211  0.09953355    -1.12900
O57         O  0.64598969  0.61472808  0.04037997    -0.75400
O58         O  0.63552102  0.60290590  0.11342030    -0.78800
O59         O  0.64374408  0.71148137  0.15763663    -0.79500
C60         C  0.63810911  0.59711899  0.06948272     0.95700
O61         O  0.66649613  0.63508086  0.17715130    -0.77500
O62         O  0.65579811  0.66875382  0.99707671    -0.82700
C63         C  0.68706851  0.70316507  0.06602454     0.98300
C64         C  0.63887970  0.68459459  0.98915279     1.04300
O65         O  0.66741086  0.71439730  0.06751223    -0.78300
C66         C  0.68363702  0.62594124  0.15474209     1.02600
Fe67       Fe  0.37636866  0.64023918  0.14788965     1.65800
Fe68       Fe  0.34344974  0.64697986  0.05149289     1.73200
Fe69       Fe  0.37646940  0.70005839  0.08573183     1.54400
O70         O  0.36639767  0.71115020  0.15237775    -0.82100
O71         O  0.35659934  0.66857840  0.99255698    -0.80400
O72         O  0.37856885  0.67461088  0.19355460    -0.84600
O73         O  0.40938797  0.64557560  0.12683774    -0.79400
O74         O  0.34521058  0.71468631  0.05973353    -0.81200
O75         O  0.36419825  0.61406936  0.03634791    -0.83900
C76         C  0.41980895  0.66812653  0.11832788     0.96800
C77         C  0.37174696  0.69973576  0.19124198     1.04300
O78         O  0.36553315  0.66238163  0.09500164    -1.12900
O79         O  0.32614349  0.62480201  0.10453246    -0.75400
O80         O  0.34385158  0.63424475  0.17218474    -0.78800
O81         O  0.40932183  0.69066942  0.10923755    -0.79500
C82         C  0.32642445  0.62614391  0.14971655     0.95700
O83         O  0.37561659  0.60279563  0.10905302    -0.77500
O84         O  0.32166692  0.67872148  0.06462134    -0.82700
C85         C  0.37386899  0.68406597  0.98521093     0.98300
C86         C  0.32532182  0.70424889  0.05735543     1.04300
O87         O  0.38702608  0.69111399  0.01854780    -0.78300
C88         C  0.37272522  0.59685196  0.06530629     1.02600
Fe89       Fe  0.13339242  0.86343255  0.84479146     1.65800
Fe90       Fe  0.16788863  0.85676139  0.93884465     1.73200
Fe91       Fe  0.13726618  0.80225613  0.90118390     1.54400
O92         O  0.10341012  0.81017462  0.88181394    -0.82100
O93         O  0.19134739  0.82766211  0.92142700    -0.80400
O94         O  0.10097054  0.85566799  0.86793534    -0.84600
O95         O  0.13113550  0.83025725  0.79630303    -0.79400
O96         O  0.12762815  0.80800927  0.96967453    -0.81200
O97         O  0.18309043  0.88171511  0.88669006    -0.83900
C98         C  0.13888756  0.80550716  0.79583077     0.96800
C99         C  0.09172245  0.83221319  0.87544622     1.04300
O100        O  0.14604282  0.84081692  0.89510899    -1.12900
O101        O  0.14550475  0.88734103  0.95825633    -0.75400
O102        O  0.13365873  0.89976208  0.88645967    -0.78800
O103        O  0.14635580  0.79392993  0.83290507    -0.79500
C104        C  0.13640911  0.90482912  0.93057540     0.95700
O105        O  0.16541934  0.87134912  0.81932089    -0.77500
O106        O  0.15691473  0.83234720  0.99655506    -0.82700
C107        C  0.18926482  0.80162880  0.92473407     0.98300
C108        C  0.14058117  0.81530520  0.00311201     1.04300
O109        O  0.16995228  0.78957329  0.92242703    -0.78300
C110        C  0.18277909  0.87996334  0.84155201     1.02600
Fe111      Fe  0.87776545  0.86189001  0.84605562     1.65800
Fe112      Fe  0.84243852  0.85409728  0.93874075     1.73200
Fe113      Fe  0.87483011  0.80061239  0.90361542     1.54400
O114        O  0.86588651  0.79160579  0.83545113    -0.82100
O115        O  0.85372281  0.83067104  0.99689790    -0.80400
O116        O  0.87966879  0.82864929  0.79782590    -0.84600
O117        O  0.91036912  0.85451199  0.86893624    -0.79400
O118        O  0.84265162  0.78674372  0.92584815    -0.81200
O119        O  0.86355503  0.88586700  0.95857302    -0.83900
C120        C  0.91990790  0.83131177  0.87690940     0.96800
C121        C  0.87204227  0.80379706  0.79778559     1.04300
O122        O  0.86520305  0.83894923  0.89629441    -1.12900
O123        O  0.82687961  0.87818313  0.88621817    -0.75400
O124        O  0.84588605  0.86976668  0.81969590    -0.78800
O125        O  0.90848574  0.80914210  0.88388991    -0.79500
C126        C  0.82802996  0.87750205  0.84111133     0.95700
O127        O  0.87724399  0.89826419  0.88799594    -0.77500
O128        O  0.82015136  0.82358429  0.92096350    -0.82700
C129        C  0.87038022  0.81438520  0.00475760     0.98300
C130        C  0.82301039  0.79786721  0.92749482     1.04300
O131        O  0.88404186  0.80734987  0.97225187    -0.78300
C132        C  0.87325176  0.90338102  0.93173403     1.02600
Fe133      Fe  0.87758457  0.63802856  0.34549739     1.65800
Fe134      Fe  0.84285232  0.64519060  0.43980376     1.73200
Fe135      Fe  0.87415593  0.69924027  0.40288133     1.54400
O136        O  0.90791740  0.69159451  0.38248497    -0.82100
O137        O  0.81981183  0.67493571  0.42262340    -0.80400
O138        O  0.91031961  0.64638956  0.36660709    -0.84600
O139        O  0.87840148  0.67107330  0.29670679    -0.79400
O140        O  0.88394217  0.69279957  0.47108001    -0.81200
O141        O  0.82724345  0.62065398  0.38805041    -0.83900
C142        C  0.87043673  0.69572864  0.29720041     0.96800
C143        C  0.91960788  0.66975540  0.37466113     1.04300
O144        O  0.86506105  0.66072362  0.39618491    -1.12900
O145        O  0.86464374  0.61400482  0.45882616    -0.75400
O146        O  0.87826643  0.60193906  0.38802512    -0.78800
O147        O  0.86463485  0.70777908  0.33516265    -0.79500
C148        C  0.87465342  0.59680131  0.43191229     0.95700
O149        O  0.84555304  0.62927445  0.32071299    -0.77500
O150        O  0.85418058  0.66913069  0.49765033    -0.82700
C151        C  0.82225055  0.70089088  0.42671609     0.98300
C152        C  0.87077595  0.68573504  0.50441916     1.04300
O153        O  0.84175613  0.71244813  0.42511714    -0.78300
C154        C  0.82789284  0.62161022  0.34293006     1.02600
Fe155      Fe  0.13369341  0.63859785  0.34409219     1.65800
Fe156      Fe  0.16757680  0.64585107  0.43952698     1.73200
Fe157      Fe  0.13688159  0.70000480  0.40037987     1.54400
O158        O  0.14697360  0.70806184  0.33246683    -0.82100
O159        O  0.15509848  0.66942031  0.49705760    -0.80400
O160        O  0.13213438  0.67153227  0.29557523    -0.84600
O161        O  0.10098320  0.64644815  0.36594507    -0.79400
O162        O  0.16890853  0.71333156  0.42392236    -0.81200
O163        O  0.14572784  0.61420323  0.45683998    -0.83900
C164        C  0.09165930  0.66989960  0.37300050     0.96800
C165        C  0.14020576  0.69610597  0.29511570     1.04300
O166        O  0.14595737  0.66142677  0.39488315    -1.12900
O167        O  0.18402539  0.62199068  0.38748199    -0.75400
O168        O  0.16586261  0.63035026  0.31974283    -0.78800
O169        O  0.10331530  0.69197272  0.37924313    -0.79500
C170        C  0.18339690  0.62253657  0.34224174     0.95700
O171        O  0.13354980  0.60224961  0.38508601    -0.77500
O172        O  0.19088956  0.67587786  0.42498730    -0.82700
C173        C  0.13880357  0.68663704  0.50276044     0.98300
C174        C  0.18827305  0.70182233  0.42866663     1.04300
O175        O  0.12648121  0.69440180  0.46853308    -0.78300
C176        C  0.13668748  0.59681833  0.42884148     1.02600
Fe177      Fe  0.63399678  0.36338126  0.84882368     1.65800
Fe178      Fe  0.66829999  0.35417112  0.94249797     1.73200
Fe179      Fe  0.63518909  0.30191803  0.90520045     1.54400
O180        O  0.60208479  0.31183681  0.88454951    -0.82100
O181        O  0.69000954  0.32336693  0.92431589    -0.80400
O182        O  0.60109672  0.35743021  0.87107952    -0.84600
O183        O  0.63114512  0.33047234  0.80012429    -0.79400
O184        O  0.62557021  0.30829578  0.97381108    -0.81200
O185        O  0.68488704  0.37799819  0.89055637    -0.83900
C186        C  0.63856027  0.30556814  0.79969924     0.96800
C187        C  0.59113137  0.33435726  0.87795292     1.04300
O188        O  0.64558124  0.33993200  0.89917212    -1.12900
O189        O  0.64754721  0.38629926  0.96216216    -0.75400
O190        O  0.63545551  0.39954085  0.89085697    -0.78800
O191        O  0.64460488  0.29317777  0.83715921    -0.79500
C192        C  0.63876360  0.40425941  0.93491565     0.95700
O193        O  0.66629694  0.36946111  0.82366213    -0.77500
O194        O  0.65612102  0.33053311  0.00008036    -0.82700
C195        C  0.68661594  0.29758398  0.92823572     0.98300
C196        C  0.63905094  0.31464161  0.00701798     1.04300
O197        O  0.66680318  0.28696339  0.92737749    -0.78300
C198        C  0.68422074  0.37653620  0.84542884     1.02600
Fe199      Fe  0.37711062  0.36254392  0.84518519     1.65800
Fe200      Fe  0.34201240  0.35548648  0.93829797     1.73200
Fe201      Fe  0.37516035  0.30232557  0.90600566     1.54400
O202        O  0.36655172  0.29172708  0.83828647    -0.82100
O203        O  0.35315593  0.33275751  0.99780118    -0.80400
O204        O  0.37970202  0.32842805  0.79874534    -0.84600
O205        O  0.40981768  0.35662857  0.86828455    -0.79400
O206        O  0.34305815  0.28818166  0.92833576    -0.81200
O207        O  0.36305551  0.38747067  0.95688964    -0.83900
C208        C  0.41966542  0.33378894  0.87732728     0.96800
C209        C  0.37266204  0.30331219  0.80004273     1.04300
O210        O  0.36496452  0.34018716  0.89659192    -1.12900
O211        O  0.32631761  0.37882119  0.88471053    -0.75400
O212        O  0.34508346  0.36890801  0.81856400    -0.78800
O213        O  0.40859475  0.31151922  0.88578808    -0.79500
C214        C  0.32722677  0.37689999  0.83965678     0.95700
O215        O  0.37602446  0.39956492  0.88551375    -0.77500
O216        O  0.32018191  0.32460604  0.92098344    -0.82700
C217        C  0.37025255  0.31731182  0.00658762     0.98300
C218        C  0.32327533  0.29898254  0.92795726     1.04300
O219        O  0.38419119  0.31056373  0.97441126    -0.78300
C220        C  0.37253011  0.40482557  0.92940446     1.02600
Fe221      Fe  0.37609397  0.14001084  0.34495418     1.65800
Fe222      Fe  0.34248439  0.14621834  0.44079825     1.73200
Fe223      Fe  0.37494973  0.19994153  0.40630270     1.54400
O224        O  0.40840401  0.19069591  0.38592637    -0.82100
O225        O  0.32002488  0.17712498  0.42700046    -0.80400
O226        O  0.40878492  0.14563504  0.36780569    -0.84600
O227        O  0.37900529  0.17416279  0.29901536    -0.79400
O228        O  0.38445511  0.19174841  0.47434520    -0.81200
O229        O  0.32609770  0.12366431  0.38739864    -0.83900
C230        C  0.37213277  0.19925877  0.30041682     0.96800
C231        C  0.41905287  0.16812602  0.37761484     1.04300
O232        O  0.36454025  0.16210741  0.39733554    -1.12900
O233        O  0.36391194  0.11401519  0.45642681    -0.75400
O234        O  0.37495633  0.10264125  0.38351509    -0.78800
O235        O  0.36596913  0.21079116  0.33863718    -0.79500
C236        C  0.37227251  0.09675123  0.42729548     0.95700
O237        O  0.34376525  0.13384907  0.31970618    -0.77500
O238        O  0.35452801  0.16822878  0.50031090    -0.82700
C239        C  0.32328769  0.20292878  0.43159437     0.98300
C240        C  0.37136757  0.18435464  0.50764257     1.04300
O241        O  0.34301168  0.21384811  0.42916984    -0.78300
C242        C  0.32634964  0.12568066  0.34231423     1.02600
Fe243      Fe  0.63391144  0.13769192  0.34811714     1.65800
Fe244      Fe  0.66795227  0.14652058  0.44253849     1.73200
Fe245      Fe  0.63459513  0.19894714  0.40606943     1.54400
O246        O  0.64314018  0.20840333  0.33769930    -0.82100
O247        O  0.65629427  0.17010791  0.50032933    -0.80400
O248        O  0.63154167  0.17050492  0.29949933    -0.84600
O249        O  0.60082860  0.14388772  0.36892165    -0.79400
O250        O  0.66646217  0.21397381  0.42713132    -0.81200
O251        O  0.64711179  0.11421124  0.46197199    -0.83900
C252        C  0.59058798  0.16655031  0.37768346     0.96800
C253        C  0.63783777  0.19585055  0.29986300     1.04300
O254        O  0.64525125  0.16099999  0.39906586    -1.12900
O255        O  0.68428688  0.12232242  0.39114648    -0.75400
O256        O  0.66638876  0.13096021  0.32356585    -0.78800
O257        O  0.60126309  0.18899422  0.38667715    -0.79500
C258        C  0.68394733  0.12328738  0.34602869     0.95700
O259        O  0.63471982  0.10173313  0.39040691    -0.77500
O260        O  0.68972852  0.17757663  0.42452460    -0.82700
C261        C  0.63937374  0.18604093  0.50772435     0.98300
C262        C  0.68630564  0.20342236  0.42815025     1.04300
O263        O  0.62557869  0.19215766  0.47499506    -0.78300
C264        C  0.63804307  0.09660024  0.43432884     1.02600
Fe265      Fe  0.87688247  0.36026543  0.64611511     1.65800
Fe266      Fe  0.84335560  0.35646247  0.54986909     1.73200
Fe267      Fe  0.87472871  0.30136399  0.58158238     1.54400
O268        O  0.90805988  0.30924761  0.60387752    -0.82100
O269        O  0.82036786  0.32564373  0.56143785    -0.80400
O270        O  0.90968142  0.35394453  0.62424011    -0.84600
O271        O  0.87853331  0.32525976  0.69039733    -0.79400
O272        O  0.88486121  0.31013581  0.51386451    -0.81200
O273        O  0.82691907  0.37821895  0.60457579    -0.83900
C274        C  0.87099294  0.30047084  0.68742747     0.96800
C275        C  0.91931311  0.33106836  0.61437771     1.04300
O276        O  0.86512092  0.33937900  0.59237220    -1.12900
O277        O  0.86525633  0.38855594  0.53601317    -0.75400
O278        O  0.87692822  0.39840571  0.60915572    -0.78800
O279        O  0.86494105  0.28987047  0.64836681    -0.79500
C280        C  0.87437345  0.40493923  0.56558475     0.95700
O281        O  0.84462987  0.36678282  0.67132912    -0.77500
O282        O  0.85565126  0.33549944  0.48942642    -0.82700
C283        C  0.82326369  0.29992996  0.55483121     0.98300
C284        C  0.87219506  0.31907957  0.48097848     1.04300
O285        O  0.84280421  0.28860250  0.55695384    -0.78300
C286        C  0.82719722  0.37546650  0.64960021     1.02600
Fe287      Fe  0.13348444  0.36219892  0.64568700     1.65800
Fe288      Fe  0.16704027  0.35541603  0.55010130     1.73200
Fe289      Fe  0.13507631  0.30158788  0.58558443     1.54400
O290        O  0.14454003  0.29179753  0.65343152    -0.82100
O291        O  0.15489348  0.33285693  0.49172705    -0.80400
O292        O  0.13137400  0.32852285  0.69265667    -0.84600
O293        O  0.10043194  0.35572000  0.62473159    -0.79400
O294        O  0.16689737  0.28776665  0.56211465    -0.81200
O295        O  0.14551340  0.38715592  0.53309420    -0.83900
C296        C  0.09072438  0.33267027  0.61604337     0.96800
C297        C  0.13851498  0.30353315  0.69160307     1.04300
O298        O  0.14495876  0.33977493  0.59355846    -1.12900
O299        O  0.18347128  0.37889460  0.60236820    -0.75400
O300        O  0.16601097  0.36886277  0.67005988    -0.78800
O301        O  0.10189816  0.31060886  0.60693366    -0.79500
C302        C  0.18344761  0.37696254  0.64743928     0.95700
O303        O  0.13394846  0.39909987  0.60546590    -0.77500
O304        O  0.18949820  0.32477399  0.56529316    -0.82700
C305        C  0.13820830  0.31657738  0.48389950     0.98300
C306        C  0.18649700  0.29896250  0.56015728     1.04300
O307        O  0.12522471  0.30848389  0.51698710    -0.78300
C308        C  0.13666910  0.40446404  0.56144895     1.02600
Fe309      Fe  0.13303767  0.14031560  0.14613715     1.65800
Fe310      Fe  0.16712658  0.14525751  0.05093580     1.73200
Fe311      Fe  0.13465113  0.19934876  0.08256001     1.54400
O312        O  0.10123025  0.19062937  0.10374859    -0.82100
O313        O  0.18961037  0.17624152  0.06444045    -0.80400
O314        O  0.10041210  0.14574046  0.12302702    -0.84600
O315        O  0.13023117  0.17514894  0.19086861    -0.85800
O316        O  0.12507331  0.19007996  0.01500500    -0.81200
O317        O  0.18318038  0.12280273  0.10537191    -0.83900
C318        C  0.13726542  0.20019102  0.18831976     0.96800
C319        C  0.09037272  0.16827852  0.11275188     1.04300
O320        O  0.14485728  0.16166096  0.09319175    -1.12900
O321        O  0.14543590  0.11322307  0.03568932    -0.75400
O322        O  0.13392567  0.10235571  0.10860584    -0.78800
O323        O  0.14367403  0.21097088  0.14960166    -0.79500
C324        C  0.13642204  0.09637432  0.06476653     0.95700
O325        O  0.16528146  0.13478292  0.17166457    -0.77500
O326        O  0.15553809  0.16712149  0.99070154    -0.82700
C327        C  0.18642591  0.20187012  0.05731757     0.98300
C328        C  0.13867650  0.18305630  0.98243559     1.04300
O329        O  0.16668484  0.21279972  0.05875333    -0.78300
C330        C  0.18281671  0.12597416  0.15029757     1.02600
Fe331      Fe  0.87643758  0.14124201  0.14563587     1.65800
Fe332      Fe  0.84147694  0.14565779  0.05201796     1.73200
Fe333      Fe  0.87485220  0.19970802  0.08011444     1.54400
O334        O  0.86650362  0.21245242  0.14696640    -0.82100
O335        O  0.85262256  0.16675420  0.99081731    -0.80400
O336        O  0.87909715  0.17666677  0.18950837    -0.84600
O337        O  0.90895152  0.14674289  0.12137200    -0.79400
O338        O  0.84285830  0.21311336  0.05708680    -0.81200
O339        O  0.86244295  0.11308185  0.03604395    -0.83900
C340        C  0.91909256  0.16901680  0.10978430     0.96800
C341        C  0.87253884  0.20191092  0.18609723     1.04300
O342        O  0.86432940  0.16219683  0.09270308    -1.12900
O343        O  0.82582655  0.12368663  0.10723553    -0.75400
O344        O  0.84443930  0.13496821  0.17296903    -0.78800
O345        O  0.90835533  0.19129565  0.10024423    -0.79500
C346        C  0.82680341  0.12597333  0.15221043     0.95700
O347        O  0.87544276  0.10312143  0.10822295    -0.77500
O348        O  0.81961777  0.17708528  0.06655986    -0.82700
C349        C  0.86965606  0.18213044  0.98104404     0.98300
C350        C  0.82301443  0.20247675  0.05762778     1.04300
O351        O  0.88373653  0.18929214  0.01257862    -0.78300
C352        C  0.87183306  0.09648280  0.06492417     1.02600
C353        C  0.06516352  0.16827483  0.11163316    -0.01700
C354        C  0.05330501  0.14329547  0.11791992    -0.09700
C355        C  0.02968485  0.14257006  0.11695199    -0.18500
C356        C  0.01684996  0.16696525  0.10967101     0.03900
C357        C  0.02882523  0.19239437  0.10384636     0.18000
C358        C  0.05274503  0.19282010  0.10462285    -0.20000
C359        C  0.01682446  0.21721294  0.09751343    -0.21200
C360        C  0.99317120  0.21734136  0.09707402    -0.19800
C361        C  0.98089201  0.19261671  0.10251035     0.19400
C362        C  0.99259617  0.16703468  0.10843004     0.01600
C363        C  0.97949665  0.14258567  0.11285407    -0.14500
C364        C  0.95588519  0.14352140  0.11274344    -0.12200
C365        C  0.94429115  0.16875939  0.10801437     0.01100
C366        C  0.95696365  0.19327334  0.10233703    -0.24400
H367        H  0.06232156  0.12399581  0.12357115     0.09100
H368        H  0.02202388  0.12246009  0.12238802     0.12700
H369        H  0.06167630  0.21235177  0.10001971     0.11400
H370        H  0.02580208  0.23671205  0.09313909     0.12600
H371        H  0.98441223  0.23694105  0.09243120     0.11600
H372        H  0.98693689  0.12223510  0.11645881     0.08700
H373        H  0.94665577  0.12418774  0.11652301     0.12000
H374        H  0.94822680  0.21295773  0.09835001     0.13800
C375        C  0.13514194  0.30438287  0.43589999    -0.01700
C376        C  0.15024393  0.31090314  0.39911226    -0.09700
C377        C  0.15039051  0.29554131  0.35705675    -0.18500
C378        C  0.13553138  0.27272557  0.35054726     0.03900
C379        C  0.11951553  0.26702219  0.38698712     0.18000
C380        C  0.11927111  0.28298049  0.42869685    -0.20000
C381        C  0.10440648  0.24470877  0.38249034    -0.21200
C382        C  0.10530097  0.22732917  0.34318292    -0.19800
C383        C  0.12123029  0.23190537  0.30717502     0.19400
C384        C  0.13634124  0.25494631  0.30990876     0.01600
C385        C  0.15178819  0.25892191  0.27211525    -0.14500
C386        C  0.15219025  0.24084826  0.23346010    -0.12200
C387        C  0.13748259  0.21798837  0.23116134     0.01100
C388        C  0.12208788  0.21357613  0.26832935    -0.24400
H389        H  0.16268564  0.32727635  0.40350793     0.09100
H390        H  0.16284307  0.30152240  0.33100211     0.12700
H391        H  0.10745645  0.27761428  0.45674578     0.11400
H392        H  0.09208154  0.24032087  0.41005954     0.12600
H393        H  0.09357589  0.21001335  0.34115912     0.11600
H394        H  0.16370743  0.27587829  0.27115418     0.08700
H395        H  0.16417114  0.24481718  0.20507379     0.12000
H396        H  0.11036490  0.19623860  0.26647090     0.13800
C397        C  0.13594468  0.19664113  0.93540984    -0.01700
C398        C  0.11851871  0.21619308  0.92908301    -0.09700
C399        C  0.11829278  0.23389281  0.88999564    -0.18500
C400        C  0.13549267  0.23257795  0.85522795     0.03900
C401        C  0.15210052  0.21129102  0.85950711     0.18000
C402        C  0.15236519  0.19380019  0.89960900    -0.20000
C403        C  0.16856995  0.20797538  0.82413143    -0.21200
C404        C  0.16881491  0.22525835  0.78455813    -0.19800
C405        C  0.15317143  0.24700115  0.78026550     0.19400
C406        C  0.13667126  0.25146886  0.81620725     0.01600
C407        C  0.12236668  0.27495359  0.81194743    -0.14500
C408        C  0.12368194  0.29243665  0.77249340    -0.12200
C409        C  0.13902265  0.28693511  0.73576595     0.01100
C410        C  0.15390903  0.26433273  0.74019131    -0.24400
H411        H  0.10538058  0.21876633  0.95562042     0.09100
H412        H  0.10444040  0.24844967  0.88804815     0.12700
H413        H  0.16585966  0.17870855  0.90372561     0.11400
H414        H  0.18122425  0.19174117  0.82686783     0.12600
H415        H  0.18157017  0.22185672  0.75744767     0.11600
H416        H  0.11013402  0.28051305  0.83875404     0.08700
H417        H  0.11212325  0.30985846  0.77004681     0.12000
H418        H  0.16613993  0.26021424  0.71229494     0.13800
C419        C  0.87250642  0.22029687  0.22839255    -0.01700
C420        C  0.85905566  0.24435313  0.22905552    -0.09700
C421        C  0.85976802  0.26280126  0.26730194    -0.18500
C422        C  0.87427511  0.25799770  0.30631671     0.03900
C423        C  0.88817980  0.23382001  0.30508383     0.18000
C424        C  0.88698397  0.21516956  0.26673304    -0.20000
C425        C  0.90327755  0.22837331  0.34213361    -0.21200
C426        C  0.90449541  0.24598560  0.38103096    -0.19800
C427        C  0.89043893  0.26933518  0.38424238     0.19400
C428        C  0.87527523  0.27595681  0.34681214     0.01600
C429        C  0.86132713  0.29971048  0.35246269    -0.14500
C430        C  0.86133661  0.31494801  0.39482797    -0.12200
C431        C  0.87555699  0.30744960  0.43252823     0.01100
C432        C  0.89075676  0.28529949  0.42587136    -0.24400
H433        H  0.84783024  0.24898410  0.19971574     0.09100
H434        H  0.84887474  0.28071097  0.26513663     0.12700
H435        H  0.89777519  0.19694737  0.26622144     0.11400
H436        H  0.91409496  0.21019142  0.34124830     0.12600
H437        H  0.91614591  0.24089132  0.40943591     0.11600
H438        H  0.84956944  0.30638171  0.32555547     0.08700
H439        H  0.84946215  0.33195092  0.39874726     0.12000
H440        H  0.90193708  0.27916597  0.45451565     0.13800
C441        C  0.86988986  0.28277423  0.73030382    -0.01700
C442        C  0.85526648  0.25978508  0.73176878    -0.09700
C443        C  0.85519732  0.24173289  0.77053763    -0.18500
C444        C  0.87010715  0.24585930  0.80912275     0.03900
C445        C  0.88491513  0.26924321  0.80738298     0.18000
C446        C  0.88447672  0.28753372  0.76857372    -0.20000
C447        C  0.90029829  0.27411268  0.84414880    -0.21200
C448        C  0.90124753  0.25638378  0.88287436    -0.19800
C449        C  0.88667097  0.23348990  0.88609246     0.19400
C450        C  0.87087054  0.22777433  0.84937946     0.01600
C451        C  0.85632100  0.20454529  0.85518354    -0.14500
C452        C  0.85674779  0.18859886  0.89672085    -0.12200
C453        C  0.87195818  0.19488449  0.93333558     0.01100
C454        C  0.88733848  0.21687138  0.92683794    -0.24400
H455        H  0.84382003  0.25563863  0.70258594     0.09100
H456        H  0.84348446  0.22455626  0.76894830     0.12700
H457        H  0.89605708  0.30504864  0.76749224     0.11400
H458        H  0.91169797  0.29178337  0.84295926     0.12600
H459        H  0.91328516  0.26085415  0.91089519     0.11600
H460        H  0.84392470  0.19869466  0.82895106     0.08700
H461        H  0.84459075  0.17187956  0.90080750     0.12000
H462        H  0.89913196  0.22221325  0.95488924     0.13800
C463        C  0.94451238  0.32985022  0.61574836    -0.01700
C464        C  0.95615722  0.30538931  0.60420142    -0.09700
C465        C  0.97989394  0.30442769  0.60511900    -0.18500
C466        C  0.99286948  0.32807861  0.61763560     0.03900
C467        C  0.98094524  0.35266375  0.63010948     0.18000
C468        C  0.95712792  0.35332056  0.62904528    -0.20000
C469        C  0.99283231  0.37661688  0.64326135    -0.21200
C470        C  0.01641103  0.37689880  0.64355650    -0.19800
C471        C  0.02871826  0.35324894  0.63062521     0.19400
C472        C  0.01717720  0.32839803  0.61781086     0.01600
C473        C  0.03051105  0.30512803  0.60522919    -0.14500
C474        C  0.05420747  0.30661942  0.60482537    -0.12200
C475        C  0.06551698  0.33125673  0.61692880     0.01100
C476        C  0.05256169  0.35444608  0.63009039    -0.24400
H477        H  0.94690409  0.28686042  0.59415972     0.09100
H478        H  0.98755825  0.28490268  0.59564224     0.12700
H479        H  0.94840643  0.37235285  0.63846930     0.11400
H480        H  0.98382025  0.39537333  0.65305756     0.12600
H481        H  0.02509045  0.39586198  0.65358123     0.11600
H482        H  0.02316235  0.28549856  0.59523202     0.08700
H483        H  0.06370631  0.28831312  0.59467843     0.12000
H484        H  0.06103053  0.37360860  0.63984227     0.13800
C485        C  0.80646479  0.11895596  0.18125163    -0.01700
C486        C  0.80815360  0.11610419  0.23061194    -0.09700
C487        C  0.78873648  0.11301162  0.25881215    -0.18500
C488        C  0.76675705  0.11317710  0.23859202     0.03900
C489        C  0.76517535  0.11519743  0.18838830     0.18000
C490        C  0.78487397  0.11767828  0.16038667    -0.20000
C491        C  0.74388890  0.11581719  0.16643796    -0.21200
C492        C  0.72408011  0.11557395  0.19328239    -0.19800
C493        C  0.72500344  0.11449373  0.24281412     0.19400
C494        C  0.74630312  0.11255868  0.26626048     0.01600
C495        C  0.74612223  0.11102851  0.31637279    -0.14500
C496        C  0.72580668  0.11305931  0.34201901    -0.12200
C497        C  0.70494354  0.11652547  0.31879532     0.01100
C498        C  0.70471577  0.11636280  0.26902017    -0.24400
H499        H  0.82458676  0.11685473  0.24774946     0.09100
H500        H  0.79146865  0.11136454  0.29647455     0.12700
H501        H  0.78326191  0.12003172  0.12230713     0.11400
H502        H  0.74254127  0.11724637  0.12820069     0.12600
H503        H  0.70789986  0.11682988  0.17515356     0.11600
H504        H  0.76145914  0.10891223  0.33685187     0.08700
H505        H  0.72658793  0.11294272  0.38036304     0.12000
H506        H  0.68873715  0.11877921  0.25042653     0.13800
C507        C  0.70624755  0.22098329  0.43763310    -0.01700
C508        C  0.72780986  0.21154436  0.42434498    -0.09700
C509        C  0.74730701  0.22401071  0.44221583    -0.18500
C510        C  0.74581873  0.24621557  0.47471946     0.03900
C511        C  0.72393480  0.25718198  0.48507366     0.18000
C512        C  0.70438562  0.24458314  0.46633335    -0.20000
C513        C  0.72168402  0.28001024  0.51536682    -0.21200
C514        C  0.74072987  0.29208210  0.53589947    -0.19800
C515        C  0.76239921  0.28118595  0.52749615     0.19400
C516        C  0.76523845  0.25779184  0.49745538     0.01600
C517        C  0.78735595  0.24672843  0.49211436    -0.14500
C518        C  0.80603180  0.25941908  0.51339942    -0.12200
C519        C  0.80329002  0.28347409  0.54052154     0.01100
C520        C  0.78134048  0.29382317  0.54842932    -0.24400
H521        H  0.72961605  0.19363742  0.40139623     0.09100
H522        H  0.76325219  0.21544824  0.43054129     0.12700
H523        H  0.68772016  0.25203459  0.47662473     0.11400
H524        H  0.70508787  0.28855289  0.52329172     0.12600
H525        H  0.73847492  0.30988934  0.55890951     0.11600
H526        H  0.79083659  0.22838746  0.47151815     0.08700
H527        H  0.82280752  0.25104820  0.50679859     0.12000
H528        H  0.77903905  0.31227823  0.56993193     0.13800
C529        C  0.44430174  0.16776343  0.37854948    -0.01700
C530        C  0.45587137  0.14299457  0.36870953    -0.09700
C531        C  0.47949940  0.14201025  0.36805783    -0.18500
C532        C  0.49265668  0.16593873  0.37729044     0.03900
C533        C  0.48099666  0.19097558  0.38830675     0.18000
C534        C  0.45705248  0.19171207  0.38872712    -0.20000
C535        C  0.49333378  0.21508509  0.39877519    -0.21200
C536        C  0.51699410  0.21484182  0.39864104    -0.19800
C537        C  0.52895742  0.19054806  0.38761818     0.19400
C538        C  0.51693838  0.16581382  0.37631823     0.01600
C539        C  0.52976144  0.14201803  0.36435360    -0.14500
C540        C  0.55342515  0.14253714  0.36479503    -0.12200
C541        C  0.56532473  0.16671755  0.37695511     0.01100
C542        C  0.55289385  0.19079171  0.38792139    -0.24400
H543        H  0.44662186  0.12405808  0.36116283     0.09100
H544        H  0.48689048  0.12207912  0.36036796     0.12700
H545        H  0.44837822  0.21098134  0.39681844     0.11400
H546        H  0.48462274  0.23425667  0.40731192     0.12600
H547        H  0.52600471  0.23382495  0.40715512     0.11600
H548        H  0.52207631  0.12260854  0.35429133     0.08700
H549        H  0.56244079  0.12371329  0.35551212     0.12000
H550        H  0.56182345  0.20975865  0.39693435     0.13800
C551        C  0.20358458  0.12030139  0.17884792    -0.01700
C552        C  0.22358753  0.11041693  0.15776186    -0.09700
C553        C  0.24372249  0.10812625  0.18396775    -0.18500
C554        C  0.24460489  0.11604636  0.23229968     0.03900
C555        C  0.22413603  0.12541128  0.25371248     0.18000
C556        C  0.20401672  0.12717966  0.22721849    -0.20000
C557        C  0.22392419  0.13380065  0.30119955    -0.21200
C558        C  0.24372241  0.13363291  0.32786039    -0.19800
C559        C  0.26426692  0.12502089  0.30779182     0.19400
C560        C  0.26506086  0.11584199  0.25985633     0.01600
C561        C  0.28642594  0.10773808  0.24141657    -0.14500
C562        C  0.30620900  0.11000821  0.26866519    -0.12200
C563        C  0.30530579  0.11964315  0.31548352     0.01100
C564        C  0.28417278  0.12644393  0.33510144    -0.24400
H565        H  0.22383688  0.10495837  0.12053539     0.09100
H566        H  0.25842712  0.10063213  0.16514975     0.12700
H567        H  0.18876796  0.13497209  0.24417385     0.11400
H568        H  0.20837055  0.14099638  0.31767680     0.12600
H569        H  0.24301941  0.14073340  0.36429899     0.11600
H570        H  0.28848364  0.10024393  0.20567327     0.08700
H571        H  0.32236486  0.10458168  0.25280848     0.12000
H572        H  0.28335924  0.13431446  0.37109948     0.13800
C573        C  0.20657244  0.28232280  0.54790255    -0.01700
C574        C  0.22816020  0.29217538  0.56007143    -0.09700
C575        C  0.24758386  0.28029374  0.54080106    -0.18500
C576        C  0.24601093  0.25820709  0.50808447     0.03900
C577        C  0.22411244  0.24716169  0.49804283     0.18000
C578        C  0.20464057  0.25923986  0.51804872    -0.20000
C579        C  0.22177654  0.22455509  0.46729667    -0.21200
C580        C  0.24078914  0.21245265  0.44668149    -0.19800
C581        C  0.26250489  0.22312722  0.45543651     0.19400
C582        C  0.26539677  0.24658849  0.48530494     0.01600
C583        C  0.28757884  0.25744081  0.49093555    -0.14500
C584        C  0.30627384  0.24429846  0.47057892    -0.12200
C585        C  0.30345689  0.22004919  0.44403867     0.01100
C586        C  0.28145720  0.21006847  0.43536169    -0.24400
H587        H  0.23002558  0.30983034  0.58356130     0.09100
H588        H  0.26354236  0.28907577  0.55192693     0.12700
H589        H  0.18794420  0.25161395  0.50834189     0.11400
H590        H  0.20515675  0.21604203  0.45944081     0.12600
H591        H  0.23849407  0.19465844  0.42364587     0.11600
H592        H  0.29111649  0.27586092  0.51129968     0.08700
H593        H  0.32309925  0.25239499  0.47765991     0.12000
H594        H  0.27912722  0.19146864  0.41421456     0.13800
C595        C  0.37224679  0.28633674  0.75617023    -0.01700
C596        C  0.38544272  0.29380236  0.71691356    -0.09700
C597        C  0.38674672  0.27648791  0.67728317    -0.18500
C598        C  0.37464014  0.25108710  0.67543309     0.03900
C599        C  0.36027410  0.24432243  0.71416996     0.18000
C600        C  0.35949996  0.26163610  0.75426428    -0.20000
C601        C  0.34671549  0.22039841  0.71249940    -0.21200
C602        C  0.34675248  0.20336439  0.67256688    -0.19800
C603        C  0.36105674  0.20918368  0.63413003     0.19400
C604        C  0.37583983  0.23254647  0.63600037     0.01600
C605        C  0.39131225  0.23630883  0.59839670    -0.14500
C606        C  0.39083931  0.21908767  0.55881382    -0.12200
C607        C  0.37480791  0.19760829  0.55472049     0.01100
C608        C  0.36039158  0.19220696  0.59336447    -0.24400
H609        H  0.39527174  0.31282175  0.71723169     0.09100
H610        H  0.39713391  0.28375493  0.64834089     0.12700
H611        H  0.34886850  0.25585284  0.78409280     0.11400
H612        H  0.33563847  0.21514373  0.74187603     0.12600
H613        H  0.33560380  0.18545404  0.67184443     0.11600
H614        H  0.40398403  0.25247391  0.59845302     0.08700
H615        H  0.40252933  0.22361295  0.53016578     0.12000
H616        H  0.34813291  0.17545258  0.59112472     0.13800
C617        C  0.37296595  0.30426290  0.05402385    -0.01700
C618        C  0.39171309  0.28703907  0.06280723    -0.09700
C619        C  0.39253228  0.27008097  0.10285919    -0.18500
C620        C  0.37451521  0.26971188  0.13592751     0.03900
C621        C  0.35625546  0.28856614  0.12878862     0.18000
C622        C  0.35554806  0.30544274  0.08799786    -0.20000
C623        C  0.33858675  0.29002937  0.16194203    -0.21200
C624        C  0.33868940  0.27321443  0.20207994    -0.19800
C625        C  0.35604464  0.25381176  0.20927091     0.19400
C626        C  0.37396833  0.25133701  0.17576071     0.01600
C627        C  0.39025928  0.23015713  0.18306188    -0.14500
C628        C  0.38910888  0.21272924  0.22261522    -0.12200
C629        C  0.37201735  0.21611084  0.25658682     0.01100
C630        C  0.35551334  0.23670108  0.24966878    -0.24400
H631        H  0.40557820  0.28582421  0.03762535     0.09100
H632        H  0.40745206  0.25737195  0.10678420     0.12700
H633        H  0.34096623  0.31866730  0.08185288     0.11400
H634        H  0.32464183  0.30438643  0.15692759     0.12600
H635        H  0.32487401  0.27507656  0.22729732     0.11600
H636        H  0.40392260  0.22628013  0.15852187     0.08700
H637        H  0.40203857  0.19698473  0.22731194     0.12000
H638        H  0.34206387  0.23919886  0.27561532     0.13800
C639        C  0.30304221  0.28230131  0.93974070    -0.01700
C640        C  0.28143729  0.29298898  0.92975247    -0.09700
C641        C  0.26202538  0.28085053  0.94875515    -0.18500
C642        C  0.26357701  0.25749587  0.97876001     0.03900
C643        C  0.28540094  0.24559698  0.98627608     0.18000
C644        C  0.30487908  0.25806553  0.96683663    -0.20000
C645        C  0.28768279  0.22168859  0.01398838    -0.21200
C646        C  0.26872282  0.20926273  0.03430257    -0.19800
C647        C  0.24712397  0.22087063  0.02839068     0.19400
C648        C  0.24425381  0.24545887  0.00132556     0.01600
C649        C  0.22218921  0.25700382  0.99836339    -0.14500
C650        C  0.20357207  0.24370924  0.01901505    -0.12200
C651        C  0.20634448  0.21862299  0.04329293     0.01100
C652        C  0.22828232  0.20772721  0.04882742    -0.24400
H653        H  0.27953187  0.31150491  0.90829729     0.09100
H654        H  0.24609588  0.29040387  0.93957140     0.12700
H655        H  0.32152754  0.24967255  0.97476865     0.11400
H656        H  0.30422353  0.21245283  0.01978793     0.12600
H657        H  0.27098888  0.19053505  0.05506734     0.11600
H658        H  0.21870352  0.27616189  0.98007129     0.08700
H659        H  0.18682469  0.25255825  0.01427820     0.12000
H660        H  0.23067074  0.18845100  0.06806077     0.13800
C661        C  0.20466547  0.38315172  0.67429216    -0.01700
C662        C  0.22556092  0.38546037  0.65065471    -0.09700
C663        C  0.24597077  0.38731881  0.67590240    -0.18500
C664        C  0.24623819  0.38690287  0.72608009     0.03900
C665        C  0.22496188  0.38586989  0.74991001     0.18000
C666        C  0.20456614  0.38400332  0.72406922    -0.20000
C667        C  0.22415878  0.38591265  0.79950475    -0.21200
C668        C  0.24403763  0.38615896  0.82608529    -0.19800
C669        C  0.26529667  0.38614965  0.80384636     0.19400
C670        C  0.26675304  0.38678329  0.75350231     0.01600
C671        C  0.28867465  0.38636217  0.73295938    -0.14500
C672        C  0.30816427  0.38433081  0.76106655    -0.12200
C673        C  0.30666232  0.38300134  0.81068297     0.01100
C674        C  0.28509230  0.38457601  0.83175767    -0.24400
H675        H  0.22626639  0.38484562  0.61231114     0.09100
H676        H  0.26129113  0.38856709  0.65507991     0.12700
H677        H  0.18857331  0.38238838  0.74295793     0.11400
H678        H  0.20800795  0.38531893  0.81793539     0.12600
H679        H  0.24276059  0.38575245  0.86440906     0.11600
H680        H  0.29132421  0.38683461  0.69516407     0.08700
H681        H  0.32452870  0.38315514  0.74362958     0.12000
H682        H  0.28358665  0.38330310  0.87000881     0.13800
C683        C  0.70652896  0.28028060  0.93812635    -0.01700
C684        C  0.72807983  0.28973139  0.92465861    -0.09700
C685        C  0.74755426  0.27761799  0.94315207    -0.18500
C686        C  0.74600490  0.25579773  0.97641058     0.03900
C687        C  0.72411085  0.24488959  0.98705700     0.18000
C688        C  0.70461856  0.25711377  0.96771090    -0.20000
C689        C  0.72176620  0.22247993  0.01819084    -0.21200
C690        C  0.74074802  0.21069490  0.03922388    -0.19800
C691        C  0.76241995  0.22150213  0.03046074     0.19400
C692        C  0.76536259  0.24451366  0.99959182     0.01600
C693        C  0.78751864  0.25543863  0.99380534    -0.14500
C694        C  0.80613752  0.24286267  0.01538126    -0.12200
C695        C  0.80324567  0.21914777  0.04333884     0.01100
C696        C  0.78126394  0.20907951  0.05182407    -0.24400
H697        H  0.72987857  0.30739174  0.90112623     0.09100
H698        H  0.76350754  0.28614529  0.93135426     0.12700
H699        H  0.68793957  0.24975370  0.97821244     0.11400
H700        H  0.70514920  0.21402317  0.02634079     0.12600
H701        H  0.73844509  0.19316420  0.06285258     0.11600
H702        H  0.79107857  0.27350908  0.97254467     0.08700
H703        H  0.82296094  0.25100860  0.00833632     0.12000
H704        H  0.77885284  0.19088927  0.07395521     0.13800
C705        C  0.70502888  0.38207954  0.81680910    -0.01700
C706        C  0.70345771  0.38392633  0.76729690    -0.09700
C707        C  0.72286030  0.38542853  0.73892350    -0.18500
C708        C  0.74482162  0.38491124  0.75902597     0.03900
C709        C  0.74646347  0.38359646  0.80930633     0.18000
C710        C  0.72669569  0.38244444  0.83761675    -0.20000
C711        C  0.76783966  0.38262578  0.83093217    -0.21200
C712        C  0.78759310  0.38224643  0.80372891    -0.19800
C713        C  0.78653512  0.38303324  0.75413676     0.19400
C714        C  0.76516238  0.38488989  0.73103649     0.01600
C715        C  0.76510578  0.38610313  0.68088328    -0.14500
C716        C  0.78528712  0.38436200  0.65485443    -0.12200
C717        C  0.80627542  0.38137338  0.67760871     0.01100
C718        C  0.80673425  0.38128175  0.72746867    -0.24400
H719        H  0.68704219  0.38358684  0.75002791     0.09100
H720        H  0.72004544  0.38633209  0.70128180     0.12700
H721        H  0.72824210  0.38065388  0.87576860     0.11400
H722        H  0.76929294  0.38165613  0.86918044     0.12600
H723        H  0.80382526  0.38098615  0.82163377     0.11600
H724        H  0.74972865  0.38797258  0.66058652     0.08700
H725        H  0.78431257  0.38442636  0.61651823     0.12000
H726        H  0.82281893  0.37909005  0.74569829     0.13800
C727        C  0.63945901  0.28973449  0.75477761    -0.01700
C728        C  0.62452073  0.29580227  0.71771111    -0.09700
C729        C  0.62350773  0.27877618  0.67765347    -0.18500
C730        C  0.63766342  0.25515133  0.67324216     0.03900
C731        C  0.65379596  0.25014195  0.70960339     0.18000
C732        C  0.65431868  0.26710567  0.75007816    -0.20000
C733        C  0.66919782  0.22812687  0.70549536    -0.21200
C734        C  0.66894972  0.21093586  0.66585820    -0.19800
C735        C  0.65278912  0.21473996  0.63010926     0.19400
C736        C  0.63657861  0.23651781  0.63388800     0.01600
C737        C  0.61980718  0.23850510  0.59837690    -0.14500
C738        C  0.61994170  0.22073901  0.55939283    -0.12200
C739        C  0.63682246  0.20042116  0.55400708     0.01100
C740        C  0.65292599  0.19714980  0.59022181    -0.24400
H741        H  0.61301492  0.31326700  0.72035885     0.09100
H742        H  0.61153196  0.28471933  0.65065962     0.12700
H743        H  0.66626988  0.26255580  0.77824311     0.11400
H744        H  0.68167750  0.22433423  0.73294272     0.12600
H745        H  0.68132778  0.19436347  0.66340033     0.11600
H746        H  0.60634349  0.25361818  0.59965071     0.08700
H747        H  0.60714997  0.22374924  0.53233320     0.12000
H748        H  0.66603523  0.18149612  0.58672732     0.13800
C749        C  0.63593873  0.30056104  0.05345471    -0.01700
C750        C  0.61937708  0.27972666  0.05813232    -0.09700
C751        C  0.61893224  0.26227176  0.09756577    -0.18500
C752        C  0.63507712  0.26508081  0.13418226     0.03900
C753        C  0.65088059  0.28738304  0.13098271     0.18000
C754        C  0.65128707  0.30469794  0.09077028    -0.20000
C755        C  0.66649940  0.29190379  0.16750604    -0.21200
C756        C  0.66678762  0.27474818  0.20714496    -0.19800
C757        C  0.65188560  0.25217131  0.21066502     0.19400
C758        C  0.63608507  0.24664228  0.17385323     0.01600
C759        C  0.62226360  0.22266761  0.17809984    -0.14500
C760        C  0.62352499  0.20557227  0.21807245    -0.12200
C761        C  0.63834662  0.21194635  0.25522988     0.01100
C762        C  0.65265792  0.23512029  0.25098273    -0.24400
H763        H  0.60715305  0.27603456  0.03018497     0.09100
H764        H  0.60582542  0.24664541  0.09815979     0.12700
H765        H  0.66411353  0.32077610  0.08784359     0.11400
H766        H  0.67853466  0.30890678  0.16549492     0.12600
H767        H  0.67894894  0.27898257  0.23502066     0.11600
H768        H  0.61039002  0.21649065  0.15106117     0.08700
H769        H  0.61233106  0.18776486  0.22055224     0.12000
H770        H  0.66442685  0.23997533  0.27933430     0.13800
C771        C  0.56592177  0.33348187  0.87766071    -0.01700
C772        C  0.55441680  0.30801230  0.87967433    -0.09700
C773        C  0.53072090  0.30691519  0.87917895    -0.18500
C774        C  0.51757448  0.33143750  0.87680381     0.03900
C775        C  0.52930012  0.35723158  0.87435217     0.18000
C776        C  0.55316290  0.35802603  0.87485785    -0.20000
C777        C  0.51715170  0.38213025  0.87141902    -0.21200
C778        C  0.49355034  0.38201991  0.87094943    -0.19800
C779        C  0.48147456  0.35702249  0.87377482     0.19400
C780        C  0.49327136  0.33134299  0.87685428     0.01600
C781        C  0.48018844  0.30675857  0.88022868    -0.14500
C782        C  0.45647477  0.30767822  0.88062233    -0.12200
C783        C  0.44489705  0.33301542  0.87739911     0.01100
C784        C  0.45760798  0.35761709  0.87381128    -0.24400
H785        H  0.56376655  0.28868689  0.88145681     0.09100
H786        H  0.52323864  0.28651957  0.88059815     0.12700
H787        H  0.56179931  0.37789484  0.87316739     0.11400
H788        H  0.52597184  0.40186138  0.86945224     0.12600
H789        H  0.48466848  0.40167210  0.86862458     0.11600
H790        H  0.48773600  0.28646140  0.88288431     0.08700
H791        H  0.44716634  0.28833124  0.88324876     0.12000
H792        H  0.44892347  0.37740545  0.87138996     0.13800
C793        C  0.13085473  0.56885506  0.44757810    -0.01700
C794        C  0.12687721  0.54655377  0.41676311    -0.09700
C795        C  0.12464384  0.51946766  0.43413606    -0.18500
C796        C  0.12641011  0.51374463  0.48323296     0.03900
C797        C  0.12924579  0.53663045  0.51447076     0.18000
C798        C  0.13131954  0.56373151  0.49654372    -0.20000
C799        C  0.13086449  0.53228879  0.56339804    -0.21200
C800        C  0.13069235  0.50556913  0.58199096    -0.19800
C801        C  0.12894094  0.48248299  0.55214623     0.19400
C802        C  0.12633173  0.48619933  0.50238280     0.01600
C803        C  0.12470284  0.46213040  0.47391554    -0.14500
C804        C  0.12703290  0.43568408  0.49363019    -0.12200
C805        C  0.13061421  0.43218383  0.54240263     0.01100
C806        C  0.13074542  0.45567881  0.57165107    -0.24400
H807        H  0.12633988  0.54985754  0.37881319     0.09100
H808        H  0.12211067  0.50339466  0.40810031     0.12700
H809        H  0.13412482  0.58081318  0.52088693     0.11400
H810        H  0.13284217  0.54967885  0.58742065     0.12600
H811        H  0.13254966  0.50292498  0.61994392     0.11600
H812        H  0.12233586  0.46303810  0.43607265     0.08700
H813        H  0.12657949  0.41783899  0.47028737     0.12000
H814        H  0.13357754  0.45321603  0.60939900     0.13800
C815        C  0.88107257  0.56935978  0.45238448    -0.01700
C816        C  0.88814889  0.54741975  0.42329043    -0.09700
C817        C  0.89081480  0.52058249  0.44164468    -0.18500
C818        C  0.88630716  0.51471280  0.48997281     0.03900
C819        C  0.88072630  0.53738677  0.51997445     0.18000
C820        C  0.87823048  0.56424824  0.50112542    -0.20000
C821        C  0.87678123  0.53298121  0.56836208    -0.21200
C822        C  0.87720804  0.50631595  0.58731237    -0.19800
C823        C  0.88126213  0.48329416  0.55826728     0.19400
C824        C  0.88623295  0.48716561  0.50927984     0.01600
C825        C  0.88967780  0.46317874  0.48133327    -0.14500
C826        C  0.88685390  0.43662950  0.50045764    -0.12200
C827        C  0.88108901  0.43290017  0.54827632     0.01100
C828        C  0.87919915  0.45635575  0.57742486    -0.24400
H829        H  0.89083923  0.55073810  0.38573832     0.09100
H830        H  0.89592563  0.50475005  0.41685834     0.12700
H831        H  0.87316814  0.58105318  0.52440622     0.11400
H832        H  0.87278395  0.55023689  0.59155579     0.12600
H833        H  0.87353041  0.50360533  0.62468548     0.11600
H834        H  0.89363587  0.46421992  0.44406979     0.08700
H835        H  0.88860325  0.41883490  0.47726570     0.12000
H836        H  0.87458287  0.45371008  0.61438218     0.13800
C837        C  0.94492237  0.67142447  0.37454128    -0.01700
C838        C  0.95635972  0.69646444  0.38362835    -0.09700
C839        C  0.98018220  0.69770088  0.38363800    -0.18500
C840        C  0.99346140  0.67377389  0.37449573     0.03900
C841        C  0.98173664  0.64854264  0.36507300     0.18000
C842        C  0.95789577  0.64762214  0.36517010    -0.20000
C843        C  0.99382712  0.62417921  0.35565255    -0.21200
C844        C  0.01738517  0.62417639  0.35551199    -0.19800
C845        C  0.02952659  0.64853921  0.36477491     0.19400
C846        C  0.01785300  0.67376940  0.37436556     0.01600
C847        C  0.03117697  0.69768706  0.38342612    -0.14500
C848        C  0.05498829  0.69647584  0.38293914    -0.12200
C849        C  0.06636827  0.67146521  0.37349699     0.01100
C850        C  0.05336415  0.64763248  0.36447047    -0.24400
H851        H  0.94687211  0.71524337  0.39088351     0.09100
H852        H  0.98772177  0.71763734  0.39097071     0.12700
H853        H  0.94941778  0.62808944  0.35793289     0.11400
H854        H  0.98498093  0.60490013  0.34839700     0.12600
H855        H  0.02618853  0.60489932  0.34814126     0.11600
H856        H  0.02368164  0.71759923  0.39102718     0.08700
H857        H  0.06451302  0.71525600  0.39011040     0.12000
H858        H  0.06181244  0.62811760  0.35706317     0.13800
C859        C  0.87878208  0.93109275  0.95210958    -0.01700
C860        C  0.88033716  0.93458039  0.00141880    -0.09700
C861        C  0.88229587  0.96102380  0.02161107    -0.18500
C862        C  0.88228169  0.98516269  0.99307367     0.03900
C863        C  0.88136522  0.98147701  0.94302018     0.18000
C864        C  0.88004738  0.95468310  0.92312936    -0.20000
C865        C  0.88076533  0.00460989  0.91306728    -0.21200
C866        C  0.88007389  0.03132383  0.93164891    -0.19800
C867        C  0.88032160  0.03567570  0.98070297     0.19400
C868        C  0.88212863  0.01278063  0.01223409     0.01600
C869        C  0.88302487  0.01863284  0.06145056    -0.14500
C870        C  0.88080915  0.04587262  0.07852744    -0.12200
C871        C  0.87761434  0.06816488  0.04728427     0.01100
C872        C  0.87805690  0.06283956  0.99832014    -0.24400
H873        H  0.87951180  0.91673621  0.02473407     0.09100
H874        H  0.88298177  0.96194402  0.05975301     0.12700
H875        H  0.87866015  0.95232775  0.88501662     0.11400
H876        H  0.88013775  0.00201123  0.87493016     0.12600
H877        H  0.87892826  0.04872535  0.90741397     0.11600
H878        H  0.88502603  0.00253959  0.08765589     0.08700
H879        H  0.88073902  0.04932775  0.11645267     0.12000
H880        H  0.87599317  0.07988990  0.97359637     0.13800
C881        C  0.87098554  0.78780666  0.75295667    -0.01700
C882        C  0.88385860  0.79583223  0.71354626    -0.09700
C883        C  0.88481283  0.77906924  0.67318829    -0.18500
C884        C  0.87273361  0.75366174  0.67090080     0.03900
C885        C  0.85850512  0.74654140  0.70967502     0.18000
C886        C  0.85798786  0.76335417  0.75031951    -0.20000
C887        C  0.84498231  0.72261224  0.70774233    -0.21200
C888        C  0.84516721  0.70566286  0.66778561    -0.19800
C889        C  0.85951842  0.71164628  0.62954227     0.19400
C890        C  0.87400505  0.73529263  0.63128198     0.01600
C891        C  0.88937594  0.73935704  0.59356453    -0.14500
C892        C  0.88926675  0.72187690  0.55430127    -0.12200
C893        C  0.87372560  0.69983917  0.55075578     0.01100
C894        C  0.85926296  0.69440505  0.58921157    -0.24400
H895        H  0.89378132  0.81477502  0.71435862     0.09100
H896        H  0.89503750  0.78664745  0.64423605     0.12700
H897        H  0.84752510  0.75722490  0.78019894     0.11400
H898        H  0.83396566  0.71715796  0.73710264     0.12600
H899        H  0.83417961  0.68759960  0.66700006     0.11600
H900        H  0.90172451  0.75589125  0.59333844     0.08700
H901        H  0.90088602  0.72651400  0.52557927     0.12000
H902        H  0.84733109  0.67728418  0.58723364     0.13800
C903        C  0.87254451  0.80060022  0.05147969    -0.01700
C904        C  0.85823273  0.80772481  0.08920613    -0.09700
C905        C  0.85721878  0.79122915  0.12992567    -0.18500
C906        C  0.87028454  0.76664795  0.13384249     0.03900
C907        C  0.88536357  0.76010364  0.09616949     0.18000
C908        C  0.88657291  0.77718550  0.05601865    -0.20000
C909        C  0.89870398  0.73608749  0.09803352    -0.21200
C910        C  0.89741279  0.71827567  0.13666002    -0.19800
C911        C  0.88276924  0.72404821  0.17442651     0.19400
C912        C  0.86888823  0.74824694  0.17349200     0.01600
C913        C  0.85425589  0.75294818  0.21234269    -0.14500
C914        C  0.85423364  0.73516228  0.25128964    -0.12200
C915        C  0.86853746  0.71191177  0.25283690     0.01100
C916        C  0.88231691  0.70604811  0.21366608    -0.24400
H917        H  0.84719745  0.82563863  0.08666072     0.09100
H918        H  0.84564812  0.79796606  0.15717789     0.12700
H919        H  0.89766434  0.77126109  0.02703225     0.11400
H920        H  0.91017167  0.73096259  0.06926088     0.12600
H921        H  0.90801910  0.69990127  0.13707160     0.11600
H922        H  0.84287385  0.77040473  0.21414347     0.08700
H923        H  0.84318217  0.73998090  0.28089215     0.12000
H924        H  0.89345047  0.68813925  0.21456794     0.13800
C925        C  0.13012271  0.93251631  0.94999045    -0.01700
C926        C  0.12674056  0.95507622  0.91950674    -0.09700
C927        C  0.12405518  0.98195577  0.93732544    -0.18500
C928        C  0.12473355  0.98728892  0.98666317     0.03900
C929        C  0.12689367  0.96418132  0.01764156     0.18000
C930        C  0.12945945  0.93718107  0.99919436    -0.20000
C931        C  0.12746656  0.96829230  0.06679595    -0.21200
C932        C  0.12733693  0.99499732  0.08577754    -0.19800
C933        C  0.12655065  0.01829505  0.05611803     0.19400
C934        C  0.12447057  0.01473651  0.00621574     0.01600
C935        C  0.12327160  0.03887196  0.97787991    -0.14500
C936        C  0.12602633  0.06519513  0.99765323    -0.12200
C937        C  0.12966048  0.06863236  0.04639442     0.01100
C938        C  0.12889620  0.04511069  0.07577966    -0.24400
H939        H  0.12708451  0.95216316  0.88144527     0.09100
H940        H  0.12218050  0.99818176  0.91140109     0.12700
H941        H  0.13179336  0.91988749  0.02328345     0.11400
H942        H  0.12879037  0.95075628  0.09069437     0.12600
H943        H  0.12858673  0.99744906  0.12386656     0.11600
H944        H  0.12093622  0.03813926  0.94007056     0.08700
H945        H  0.12595461  0.08302187  0.97422679     0.12000
H946        H  0.13149054  0.04749400  0.11359143     0.13800
C947        C  0.13849819  0.78881827  0.75161724    -0.01700
C948        C  0.12440071  0.79605281  0.71366153    -0.09700
C949        C  0.12261631  0.77881705  0.67388528    -0.18500
C950        C  0.13509801  0.75372848  0.67064910     0.03900
C951        C  0.14975609  0.74686391  0.70879522     0.18000
C952        C  0.15117258  0.76418543  0.74867637    -0.20000
C953        C  0.16301991  0.72277412  0.70694229    -0.21200
C954        C  0.16250751  0.70560179  0.66735966    -0.19800
C955        C  0.14835223  0.71174973  0.62901136     0.19400
C956        C  0.13397990  0.73549585  0.63066304     0.01600
C957        C  0.11928758  0.74005884  0.59199380    -0.14500
C958        C  0.11989235  0.72287742  0.55224312    -0.12200
C959        C  0.13518769  0.70055481  0.54921124     0.01100
C960        C  0.14894574  0.69468812  0.58845962    -0.24400
H961        H  0.11430940  0.81482175  0.71511683     0.09100
H962        H  0.11143245  0.78580532  0.64615305     0.12700
H963        H  0.16224773  0.75836647  0.77770341     0.11400
H964        H  0.17418902  0.71740583  0.73603758     0.12600
H965        H  0.17336434  0.68745451  0.66663901     0.11600
H966        H  0.10732579  0.75696010  0.59107036     0.08700
H967        H  0.10888639  0.72797471  0.52277863     0.12000
H968        H  0.16076565  0.67747451  0.58681868     0.13800
C969        C  0.14085882  0.71208744  0.25035568    -0.01700
C970        C  0.12638374  0.70533777  0.21277880    -0.09700
C971        C  0.12505181  0.72242065  0.17284351    -0.18500
C972        C  0.13836356  0.74684635  0.16914834     0.03900
C973        C  0.15384389  0.75278114  0.20634396     0.18000
C974        C  0.15480968  0.73561460  0.24645905    -0.20000
C975        C  0.16817013  0.77593860  0.20350046    -0.21200
C976        C  0.16763390  0.79328786  0.16413417    -0.19800
C977        C  0.15236728  0.78830385  0.12715761     0.19400
C978        C  0.13712803  0.76538605  0.12970138     0.01600
C979        C  0.12128022  0.76207846  0.09268633    -0.14500
C980        C  0.12153619  0.77964171  0.05346967    -0.12200
C981        C  0.13761268  0.80108849  0.04938846     0.01100
C982        C  0.15259285  0.80575388  0.08712248    -0.24400
H983        H  0.11549726  0.68723495  0.21485661     0.09100
H984        H  0.11346966  0.71591057  0.14547233     0.12700
H985        H  0.16633984  0.74079629  0.27507659     0.11400
H986        H  0.18005998  0.78051335  0.23174035     0.12600
H987        H  0.17921309  0.81076970  0.16265776     0.11600
H988        H  0.10856477  0.74597706  0.09275933     0.08700
H989        H  0.10955677  0.77555759  0.02521453     0.12000
H990        H  0.16501407  0.82232072  0.08463623     0.13800
C991        C  0.06647071  0.83065014  0.87612848    -0.01700
C992        C  0.05511881  0.80545741  0.88417917    -0.09700
C993        C  0.03133779  0.80420388  0.88468158    -0.18500
C994        C  0.01802397  0.82826280  0.87703131     0.03900
C995        C  0.02965863  0.85365166  0.86836573     0.18000
C996        C  0.05348488  0.85461896  0.86818957    -0.20000
C997        C  0.01748478  0.87806036  0.85979381    -0.21200
C998        C  0.99391877  0.87791033  0.85966329    -0.19800
C999        C  0.98187941  0.85339685  0.86850416     0.19400
C1000       C  0.99366787  0.82818355  0.87750763     0.01600
C1001       C  0.98049933  0.80416999  0.88677712    -0.14500
C1002       C  0.95671376  0.80520634  0.88675433    -0.12200
C1003       C  0.94519221  0.83011979  0.87749476     0.01100
C1004       C  0.95803544  0.85410616  0.86845872    -0.24400
H1005       H  0.06464081  0.78655524  0.89015284     0.09100
H1006       H  0.02387305  0.78410125  0.89097987     0.12700
H1007       H  0.06193181  0.87426802  0.86166016     0.11400
H1008       H  0.02626601  0.89745500  0.85303284     0.12600
H1009       H  0.98503096  0.89718802  0.85278636     0.11600
H1010       H  0.98808142  0.78430797  0.89433966     0.08700
H1011       H  0.94731695  0.78633504  0.89402025     0.12000
H1012       H  0.94946021  0.87356699  0.86130390     0.13800
C1013       C  0.37832590  0.56864153  0.04720100    -0.01700
C1014       C  0.38084097  0.54604418  0.07804850    -0.09700
C1015       C  0.38294681  0.51894994  0.06041630    -0.18500
C1016       C  0.38253373  0.51354850  0.01102229     0.03900
C1017       C  0.38111517  0.53670151  0.97996796     0.18000
C1018       C  0.37916556  0.56375022  0.99815110    -0.20000
C1019       C  0.38080609  0.53272632  0.93082187    -0.21200
C1020       C  0.38090953  0.50613434  0.91168083    -0.19800
C1021       C  0.38133287  0.48278653  0.94115664     0.19400
C1022       C  0.38262735  0.48611508  0.99125451     0.01600
C1023       C  0.38308064  0.46181040  0.01929594    -0.14500
C1024       C  0.38086204  0.43555275  0.99873300    -0.12200
C1025       C  0.37849206  0.43241518  0.94952467     0.01100
C1026       C  0.37954952  0.45613883  0.92083522    -0.24400
H1027       H  0.38032335  0.54916010  0.11604818     0.09100
H1028       H  0.38429572  0.50262592  0.08637626     0.12700
H1029       H  0.37752517  0.58104284  0.97378075     0.11400
H1030       H  0.37990813  0.55033112  0.90696848     0.12600
H1031       H  0.38007904  0.50381673  0.87351034     0.11600
H1032       H  0.38447336  0.46241467  0.05736019     0.08700
H1033       H  0.38043883  0.41755755  0.02175685     0.12000
H1034       H  0.37771604  0.45400825  0.88276805     0.13800
C1035       C  0.21004238  0.78569062  0.93568673    -0.01700
C1036       C  0.23142387  0.79830373  0.93071450    -0.09700
C1037       C  0.25082879  0.78614381  0.94988778    -0.18500
C1038       C  0.24945012  0.76091158  0.97521931     0.03900
C1039       C  0.22791386  0.74749381  0.97789163     0.18000
C1040       C  0.20857977  0.75978410  0.95782464    -0.20000
C1041       C  0.22559297  0.72231372  0.00201486    -0.21200
C1042       C  0.24413820  0.71022610  0.02408050    -0.19800
C1043       C  0.26545716  0.72303594  0.02259161     0.19400
C1044       C  0.26853127  0.74858931  0.99831454     0.01600
C1045       C  0.29053239  0.76058688  0.99845355    -0.14500
C1046       C  0.30884121  0.74702734  0.01994912    -0.12200
C1047       C  0.30575330  0.72131826  0.04223447     0.01100
C1048       C  0.28384328  0.70994669  0.04449574    -0.24400
H1049       H  0.23308358  0.81826956  0.91332957     0.09100
H1050       H  0.26652483  0.79732701  0.94521440     0.12700
H1051       H  0.19213834  0.74991141  0.96199863     0.11400
H1052       H  0.20926261  0.71198019  0.00415874     0.12600
H1053       H  0.24178000  0.69067496  0.04247458     0.11600
H1054       H  0.29423632  0.78012290  0.98153069     0.08700
H1055       H  0.32560221  0.75620866  0.01750910     0.12000
H1056       H  0.28115234  0.69015314  0.06196196     0.13800
C1057       C  0.30556556  0.61900373  0.17714767    -0.01700
C1058       C  0.28480504  0.61472333  0.15400724    -0.09700
C1059       C  0.26463470  0.61144399  0.17971804    -0.18500
C1060       C  0.26447812  0.61248892  0.22987923     0.03900
C1061       C  0.28567684  0.61570013  0.25328811     0.18000
C1062       C  0.30585730  0.61876851  0.22697871    -0.20000
C1063       C  0.28655237  0.61679757  0.30285576    -0.21200
C1064       C  0.26673130  0.61595008  0.32972089    -0.19800
C1065       C  0.24549147  0.61393034  0.30776716     0.19400
C1066       C  0.24405745  0.61152914  0.25758481     0.01600
C1067       C  0.22218010  0.60933372  0.23732039    -0.14500
C1068       C  0.20263559  0.61137686  0.26526967    -0.12200
C1069       C  0.20406967  0.61525073  0.31445669     0.01100
C1070       C  0.22563889  0.61549066  0.33561128    -0.24400
H1071       H  0.28397160  0.61477238  0.11565957     0.09100
H1072       H  0.24938333  0.60880560  0.15921043     0.12700
H1073       H  0.32175979  0.62191330  0.24551958     0.11400
H1074       H  0.30266361  0.61902641  0.32097355     0.12600
H1075       H  0.26800367  0.61758636  0.36793703     0.11600
H1076       H  0.21955775  0.60685442  0.19979962     0.08700
H1077       H  0.18624755  0.61078268  0.24791038     0.12000
H1078       H  0.22705536  0.61850408  0.37356976     0.13800
C1079       C  0.63311404  0.56872883  0.05130723    -0.01700
C1080       C  0.62927872  0.54634694  0.08207728    -0.09700
C1081       C  0.62754978  0.51914533  0.06462884    -0.18500
C1082       C  0.62970777  0.51344235  0.01552232     0.03900
C1083       C  0.63250870  0.53638821  0.98441140     0.18000
C1084       C  0.63410558  0.56349605  0.00236665    -0.20000
C1085       C  0.63435827  0.53218954  0.93547653    -0.21200
C1086       C  0.63408679  0.50555631  0.91663542    -0.19800
C1087       C  0.63221071  0.48238567  0.94625676     0.19400
C1088       C  0.62980885  0.48591382  0.99613138     0.01600
C1089       C  0.62847197  0.46170167  0.02437050    -0.14500
C1090       C  0.63051283  0.43529537  0.00413835    -0.12200
C1091       C  0.63347303  0.43199085  0.95510342     0.01100
C1092       C  0.63362008  0.45567118  0.92628393    -0.24400
H1093       H  0.62831689  0.54971808  0.11998636     0.09100
H1094       H  0.62492089  0.50301327  0.09046659     0.12700
H1095       H  0.63680745  0.58055646  0.97795455     0.11400
H1096       H  0.63638129  0.54963908  0.91159438     0.12600
H1097       H  0.63590965  0.50304989  0.87865200     0.11600
H1098       H  0.62656130  0.46249705  0.06229237     0.08700
H1099       H  0.63021069  0.41732184  0.02723549     0.12000
H1100       H  0.63609072  0.45340071  0.88840774     0.13800
C1101       C  0.70752588  0.71958795  0.05410673    -0.01700
C1102       C  0.72901347  0.70742642  0.05965897    -0.09700
C1103       C  0.74822655  0.71923284  0.03917467    -0.18500
C1104       C  0.74662823  0.74379822  0.01220876     0.03900
C1105       C  0.72518530  0.75738844  0.01009301     0.18000
C1106       C  0.70587057  0.74520085  0.03089344    -0.20000
C1107       C  0.72304716  0.78264073  0.98604827    -0.21200
C1108       C  0.74169556  0.79455314  0.96365269    -0.19800
C1109       C  0.76279570  0.78117390  0.96382252     0.19400
C1110       C  0.76553423  0.75538528  0.98743277     0.01600
C1111       C  0.78701215  0.74223362  0.98474653    -0.14500
C1112       C  0.80538870  0.75515479  0.96239891    -0.12200
C1113       C  0.80290925  0.78140661  0.94178914     0.01100
C1114       C  0.78132591  0.79379587  0.94128576    -0.24400
H1115       H  0.73091609  0.68793046  0.07840476     0.09100
H1116       H  0.76402530  0.70843531  0.04463158     0.12700
H1117       H  0.68938940  0.75491309  0.02673576     0.11400
H1118       H  0.70684426  0.79325395  0.98454759     0.12600
H1119       H  0.73954938  0.81427642  0.94570361     0.11600
H1120       H  0.79022963  0.72210595  0.99999273     0.08700
H1121       H  0.82181001  0.74505493  0.96309235     0.12000
H1122       H  0.77906801  0.81397001  0.92487349     0.13800
C1123       C  0.80704203  0.61514352  0.31532191    -0.01700
C1124       C  0.80813823  0.61118790  0.26610853    -0.09700
C1125       C  0.78836060  0.60944899  0.23881104    -0.18500
C1126       C  0.76663957  0.61215647  0.25981521     0.03900
C1127       C  0.76560544  0.61544993  0.30988343     0.18000
C1128       C  0.78561907  0.61648011  0.33701342    -0.20000
C1129       C  0.74463066  0.61884036  0.33250107    -0.21200
C1130       C  0.72465931  0.61997129  0.30639226    -0.19800
C1131       C  0.72509522  0.61745366  0.25698900     0.19400
C1132       C  0.74599246  0.61283153  0.23296554     0.01600
C1133       C  0.74529256  0.60986629  0.18306922    -0.14500
C1134       C  0.72493162  0.61291203  0.15805480    -0.12200
C1135       C  0.70455360  0.61888258  0.18173020     0.01100
C1136       C  0.70475885  0.62038422  0.23141976    -0.24400
H1137       H  0.82442515  0.61015068  0.24831656     0.09100
H1138       H  0.79067301  0.60689380  0.20119098     0.12700
H1139       H  0.78448140  0.61992601  0.37491845     0.11400
H1140       H  0.74370499  0.62134267  0.37063223     0.12600
H1141       H  0.70877587  0.62330766  0.32495506     0.11600
H1142       H  0.76024447  0.60567429  0.16226982     0.08700
H1143       H  0.72533371  0.61142882  0.11975642     0.12000
H1144       H  0.68913499  0.62472931  0.25034822     0.13800
C1145       C  0.56591907  0.66802898  0.11990805    -0.01700
C1146       C  0.55422880  0.64299405  0.12702649    -0.09700
C1147       C  0.53058883  0.64216542  0.12775498    -0.18500
C1148       C  0.51759856  0.66652893  0.12135335     0.03900
C1149       C  0.52943407  0.69198387  0.11461201     0.18000
C1150       C  0.55333982  0.69251219  0.11379139    -0.20000
C1151       C  0.51732800  0.71674877  0.10872245    -0.21200
C1152       C  0.49369281  0.71676281  0.10895972    -0.19800
C1153       C  0.48154151  0.69199088  0.11484361     0.19400
C1154       C  0.49332754  0.66651246  0.12125336     0.01600
C1155       C  0.48029085  0.64207611  0.12691214    -0.14500
C1156       C  0.45665078  0.64287821  0.12599855    -0.12200
C1157       C  0.44501471  0.66795573  0.11943913     0.01100
C1158       C  0.45763961  0.69250949  0.11405334    -0.24400
H1159       H  0.56338813  0.62372733  0.13205639     0.09100
H1160       H  0.52306711  0.62206203  0.13348232     0.12700
H1161       H  0.56213193  0.71206307  0.10856852     0.11400
H1162       H  0.52620493  0.73626067  0.10378147     0.12600
H1163       H  0.48485064  0.73628587  0.10418533     0.11600
H1164       H  0.48777781  0.62190502  0.13185008     0.08700
H1165       H  0.44744806  0.62355087  0.13025090     0.12000
H1166       H  0.44888617  0.71208551  0.10911195     0.13800
C1167       C  0.63085142  0.93227795  0.54883170    -0.01700
C1168       C  0.62836570  0.93581432  0.49978140    -0.09700
C1169       C  0.62615766  0.96217452  0.47994560    -0.18500
C1170       C  0.62668558  0.98622624  0.50856119     0.03900
C1171       C  0.62785107  0.98255187  0.55856676     0.18000
C1172       C  0.62964269  0.95572143  0.57823303    -0.20000
C1173       C  0.62828052  0.00574481  0.58845108    -0.21200
C1174       C  0.62884492  0.03248491  0.56970872    -0.19800
C1175       C  0.62887642  0.03673712  0.52058735     0.19400
C1176       C  0.62710651  0.01371948  0.48929529     0.01600
C1177       C  0.62674205  0.01921842  0.44001839    -0.14500
C1178       C  0.62928473  0.04619234  0.42258936    -0.12200
C1179       C  0.63228657  0.06867990  0.45342185     0.01100
C1180       C  0.63146152  0.06382060  0.50252314    -0.24400
H1181       H  0.62880687  0.91806662  0.47622127     0.09100
H1182       H  0.62481098  0.96299507  0.44189111     0.12700
H1183       H  0.63145009  0.95326007  0.61625047     0.11400
H1184       H  0.62890705  0.00317864  0.62659684     0.12600
H1185       H  0.62986789  0.04995186  0.59382163     0.11600
H1186       H  0.62503166  0.00307364  0.41384261     0.08700
H1187       H  0.62973887  0.04927169  0.38457437     0.12000
H1188       H  0.63347607  0.08107658  0.52684132     0.13800
C1189       C  0.70607352  0.78153331  0.54544403    -0.01700
C1190       C  0.70315796  0.75568616  0.52361525    -0.09700
C1191       C  0.72142702  0.74246065  0.50131365    -0.18500
C1192       C  0.74327486  0.75483620  0.50007012     0.03900
C1193       C  0.74629497  0.78045171  0.52413730     0.18000
C1194       C  0.72787519  0.79337872  0.54649312    -0.20000
C1195       C  0.76761622  0.79331591  0.52523525    -0.21200
C1196       C  0.78623521  0.78103232  0.50349669    -0.19800
C1197       C  0.78392174  0.75578857  0.47952373     0.19400
C1198       C  0.76230254  0.74262703  0.47649612     0.01600
C1199       C  0.76076360  0.71771400  0.45033799    -0.14500
C1200       C  0.78013019  0.70529551  0.43141820    -0.12200
C1201       C  0.80165500  0.71731398  0.43748340     0.01100
C1202       C  0.80328488  0.74315210  0.45993230    -0.24400
H1203       H  0.68651419  0.74613884  0.52209180     0.09100
H1204       H  0.71784856  0.72271555  0.48499927     0.12700
H1205       H  0.73044641  0.81329785  0.56360458     0.11400
H1206       H  0.76996216  0.81291926  0.54345328     0.12600
H1207       H  0.80260004  0.79126962  0.50572941     0.11600
H1208       H  0.74491873  0.70702039  0.44465105     0.08700
H1209       H  0.77830560  0.68555692  0.41338969     0.12000
H1210       H  0.81981513  0.75270337  0.46461777     0.13800
C1211       C  0.70554150  0.88379501  0.67739019    -0.01700
C1212       C  0.72629017  0.88687690  0.65347651    -0.09700
C1213       C  0.74669857  0.88961483  0.67849256    -0.18500
C1214       C  0.74707997  0.88924642  0.72867006     0.03900
C1215       C  0.72588616  0.88774379  0.75273322     0.18000
C1216       C  0.70550123  0.88509936  0.72713743    -0.20000
C1217       C  0.72517252  0.88788236  0.80232771    -0.21200
C1218       C  0.74510045  0.88831045  0.82869271    -0.19800
C1219       C  0.76629325  0.88841236  0.80619670     0.19400
C1220       C  0.76764690  0.88934286  0.75586349     0.01600
C1221       C  0.78952400  0.88914044  0.73508334    -0.14500
C1222       C  0.80905730  0.88661921  0.76294141    -0.12200
C1223       C  0.80760941  0.88463435  0.81248625     0.01100
C1224       C  0.78611780  0.88641487  0.83383484    -0.24400
H1225       H  0.72691402  0.88613999  0.61512804     0.09100
H1226       H  0.76192821  0.89135213  0.65753213     0.12700
H1227       H  0.68960203  0.88306534  0.74622631     0.11400
H1228       H  0.70907364  0.88701901  0.82091364     0.12600
H1229       H  0.74391842  0.88776411  0.86702054     0.11600
H1230       H  0.79209023  0.88999996  0.69731059     0.08700
H1231       H  0.82538413  0.88542808  0.74534117     0.12000
H1232       H  0.78466428  0.88477759  0.87204173     0.13800
C1233       C  0.63553531  0.69726264  0.94164937    -0.01700
C1234       C  0.61839372  0.71718610  0.93544754    -0.09700
C1235       C  0.61802723  0.73428424  0.89561150    -0.18500
C1236       C  0.63482102  0.73198133  0.86012978     0.03900
C1237       C  0.65083520  0.71001607  0.86409710     0.18000
C1238       C  0.65120891  0.69307837  0.90482160    -0.20000
C1239       C  0.66675035  0.70564207  0.82797334    -0.21200
C1240       C  0.66721108  0.72278077  0.78822706    -0.19800
C1241       C  0.65234656  0.74536647  0.78445860     0.19400
C1242       C  0.63627541  0.75067608  0.82091091     0.01600
C1243       C  0.62278686  0.77488728  0.81714543    -0.14500
C1244       C  0.62448981  0.79237411  0.77778071    -0.12200
C1245       C  0.63940899  0.78618223  0.74061433     0.01100
C1246       C  0.65347554  0.76275546  0.74447470    -0.24400
H1247       H  0.60571981  0.72061714  0.96267036     0.09100
H1248       H  0.60448213  0.74928414  0.89378199     0.12700
H1249       H  0.66435227  0.67750154  0.90871337     0.11400
H1250       H  0.67889442  0.68881237  0.83041699     0.12600
H1251       H  0.67959772  0.71867255  0.76067020     0.11600
H1252       H  0.61094733  0.78105243  0.84433367     0.08700
H1253       H  0.61354705  0.81039964  0.77578785     0.12000
H1254       H  0.66537395  0.75804540  0.71623468     0.13800
C1255       C  0.63531274  0.71830372  0.23852041    -0.01700
C1256       C  0.62218177  0.71025616  0.27759724    -0.09700
C1257       C  0.61954247  0.72791226  0.31656857    -0.18500
C1258       C  0.63030122  0.75421917  0.31804977     0.03900
C1259       C  0.64393851  0.76209629  0.27876244     0.18000
C1260       C  0.64597129  0.74444619  0.23932422    -0.20000
C1261       C  0.65592524  0.78724587  0.27956128    -0.21200
C1262       C  0.65572655  0.80399246  0.31978613    -0.19800
C1263       C  0.64279118  0.79657031  0.35946703     0.19400
C1264       C  0.62892545  0.77236973  0.35802901     0.01600
C1265       C  0.61463908  0.76708479  0.39713759    -0.14500
C1266       C  0.61592063  0.78330138  0.43792770    -0.12200
C1267       C  0.63155526  0.80526518  0.44151548     0.01100
C1268       C  0.64424967  0.81254937  0.40124447    -0.24400
H1269       H  0.61363347  0.69033317  0.27785068     0.09100
H1270       H  0.60945056  0.72007754  0.34553003     0.12700
H1271       H  0.65624857  0.75096023  0.20940387     0.11400
H1272       H  0.66623747  0.79348825  0.24954731     0.12600
H1273       H  0.66598374  0.82268742  0.32007349     0.11600
H1274       H  0.60254082  0.75027267  0.39754331     0.08700
H1275       H  0.60537981  0.77749883  0.46782115     0.12000
H1276       H  0.65601233  0.82984746  0.40302550     0.13800
C1277       C  0.37785060  0.06851464  0.44498462    -0.01700
C1278       C  0.38001383  0.04602905  0.41378384    -0.09700
C1279       C  0.38199096  0.01886180  0.43102475    -0.18500
C1280       C  0.38182427  0.01330430  0.48035437     0.03900
C1281       C  0.38093561  0.03636287  0.51170589     0.18000
C1282       C  0.37903748  0.06348346  0.49390566    -0.20000
C1283       C  0.38113674  0.03223433  0.56079913    -0.21200
C1284       C  0.38129789  0.00558602  0.57965882    -0.19800
C1285       C  0.38112793  0.98235311  0.54993137     0.19400
C1286       C  0.38174786  0.98581976  0.49981470     0.01600
C1287       C  0.38135929  0.96162233  0.47150752    -0.14500
C1288       C  0.37922998  0.93533436  0.49199428    -0.12200
C1289       C  0.37774833  0.93207309  0.54134597     0.01100
C1290       C  0.37943676  0.95569055  0.57011862    -0.24400
H1291       H  0.37929295  0.04929504  0.37583475     0.09100
H1292       H  0.38311157  0.00263232  0.40485116     0.12700
H1293       H  0.37772819  0.08072262  0.51847207     0.11400
H1294       H  0.38066345  0.04976551  0.58485643     0.12600
H1295       H  0.38094955  0.00313984  0.61784157     0.11600
H1296       H  0.38199202  0.96234056  0.43335884     0.08700
H1297       H  0.37820126  0.91744214  0.46883695     0.12000
H1298       H  0.37823747  0.95348089  0.60828969     0.13800
C1299       C  0.37267919  0.78850713  0.74006644    -0.01700
C1300       C  0.38784098  0.79440815  0.77687311    -0.09700
C1301       C  0.38968564  0.77658783  0.81587520    -0.18500
C1302       C  0.37613608  0.75234138  0.81947789     0.03900
C1303       C  0.35986361  0.74738676  0.78335741     0.18000
C1304       C  0.35851249  0.76514579  0.74399507    -0.20000
C1305       C  0.34505870  0.72468942  0.78663109    -0.21200
C1306       C  0.34579958  0.70698392  0.82554829    -0.19800
C1307       C  0.36186538  0.71098492  0.86139740     0.19400
C1308       C  0.37775719  0.73317966  0.85805488     0.01600
C1309       C  0.39456181  0.73520848  0.89350285    -0.14500
C1310       C  0.39435805  0.71750677  0.93264960    -0.12200
C1311       C  0.37738104  0.69724009  0.93812790     0.01100
C1312       C  0.36170251  0.69342310  0.90130360    -0.24400
H1313       H  0.39887997  0.81237263  0.77477199     0.09100
H1314       H  0.40175486  0.78241982  0.84277318     0.12700
H1315       H  0.34642896  0.76064759  0.71605252     0.11400
H1316       H  0.33254605  0.72086788  0.75925935     0.12600
H1317       H  0.33373437  0.69001903  0.82758252     0.11600
H1318       H  0.40792649  0.75049366  0.89225231     0.08700
H1319       H  0.40696815  0.72076175  0.96000770     0.12000
H1320       H  0.34864384  0.67766448  0.90468177     0.13800
C1321       C  0.37222835  0.80213440  0.44076760    -0.01700
C1322       C  0.35794369  0.80951634  0.40318330    -0.09700
C1323       C  0.35753387  0.79387742  0.36143034    -0.18500
C1324       C  0.37124020  0.76991859  0.35616619     0.03900
C1325       C  0.38602000  0.76286526  0.39404366     0.18000
C1326       C  0.38661937  0.77911479  0.43528829    -0.20000
C1327       C  0.39967071  0.73914308  0.39124348    -0.21200
C1328       C  0.39881875  0.72198839  0.35172114    -0.19800
C1329       C  0.38447363  0.72827427  0.31375738     0.19400
C1330       C  0.37061008  0.75246494  0.31516310     0.01600
C1331       C  0.35676991  0.75808551  0.27542354    -0.14500
C1332       C  0.35693357  0.74065191  0.23592703    -0.12200
C1333       C  0.37059848  0.71684057  0.23475288     0.01100
C1334       C  0.38414401  0.71062414  0.27408463    -0.24400
H1335       H  0.34652475  0.82702374  0.40651862     0.09100
H1336       H  0.34585439  0.80067752  0.33449221     0.12700
H1337       H  0.39759358  0.77289198  0.46422560     0.11400
H1338       H  0.41092405  0.73362711  0.42011290     0.12600
H1339       H  0.40950015  0.70368546  0.35081652     0.11600
H1340       H  0.34585193  0.77596815  0.27343226     0.08700
H1341       H  0.34630604  0.74594359  0.20594664     0.12000
H1342       H  0.39499167  0.69245367  0.27326110     0.13800
C1343       C  0.44467887  0.83532309  0.61364996    -0.01700
C1344       C  0.45645352  0.86026174  0.62140289    -0.09700
C1345       C  0.48014609  0.86109791  0.62152052    -0.18500
C1346       C  0.49314467  0.83683358  0.61395551     0.03900
C1347       C  0.48124497  0.81163666  0.60521129     0.18000
C1348       C  0.45729552  0.81109113  0.60509026    -0.20000
C1349       C  0.49333480  0.78706814  0.59707547    -0.21200
C1350       C  0.51697809  0.78686605  0.59807142    -0.19800
C1351       C  0.52920959  0.81121448  0.60734068     0.19400
C1352       C  0.51746777  0.83660365  0.61517062     0.01600
C1353       C  0.53060434  0.86058508  0.62436069    -0.14500
C1354       C  0.55426601  0.85935632  0.62614777    -0.12200
C1355       C  0.56588072  0.83429057  0.61878059     0.01100
C1356       C  0.55313666  0.81027687  0.60910833    -0.24400
H1357       H  0.44731700  0.87940896  0.62777490     0.09100
H1358       H  0.48773475  0.88110242  0.62791936     0.12700
H1359       H  0.44849535  0.79166036  0.59878562     0.11400
H1360       H  0.48442838  0.76778733  0.59017841     0.12600
H1361       H  0.52576480  0.76743849  0.59188767     0.11600
H1362       H  0.52314506  0.88066744  0.63056624     0.08700
H1363       H  0.56350803  0.87833667  0.63340084     0.12000
H1364       H  0.56181643  0.79075078  0.60309959     0.13800
C1365       C  0.30264593  0.78194681  0.55574299    -0.01700
C1366       C  0.28099063  0.79361290  0.56141208    -0.09700
C1367       C  0.26198746  0.78145721  0.54072659    -0.18500
C1368       C  0.26399802  0.75707774  0.51333209     0.03900
C1369       C  0.28565627  0.74405687  0.51084898     0.18000
C1370       C  0.30472842  0.75655060  0.53195245    -0.20000
C1371       C  0.28824347  0.71906526  0.48617747    -0.21200
C1372       C  0.26977872  0.70674703  0.46381381    -0.19800
C1373       C  0.24841433  0.71948613  0.46457579     0.19400
C1374       C  0.24529012  0.74512250  0.48851545     0.01600
C1375       C  0.22362670  0.75778045  0.48614958    -0.14500
C1376       C  0.20545439  0.74455570  0.46379350    -0.12200
C1377       C  0.20826656  0.71840779  0.44302916     0.01100
C1378       C  0.23000570  0.70642319  0.44230086    -0.24400
H1379       H  0.27879830  0.81297766  0.58041378     0.09100
H1380       H  0.24601678  0.79184370  0.54638942     0.12700
H1381       H  0.32136675  0.74727497  0.52753487     0.11400
H1382       H  0.30464415  0.70893416  0.48427061     0.12600
H1383       H  0.27226500  0.68720667  0.44547959     0.11600
H1384       H  0.22010777  0.77777725  0.50159986     0.08700
H1385       H  0.18889796  0.75431726  0.46470330     0.12000
H1386       H  0.23248216  0.68632858  0.42573482     0.13800
C1387       C  0.30571766  0.88472799  0.67851225    -0.01700
C1388       C  0.28502430  0.88877506  0.65497071    -0.09700
C1389       C  0.26468848  0.89146514  0.68024502    -0.18500
C1390       C  0.26429530  0.89007792  0.73035848     0.03900
C1391       C  0.28541580  0.88714795  0.75418854     0.18000
C1392       C  0.30576503  0.88460850  0.72830596    -0.20000
C1393       C  0.28606267  0.88585918  0.80374430    -0.21200
C1394       C  0.26611647  0.88644070  0.83020010    -0.19800
C1395       C  0.24496957  0.88828355  0.80783143     0.19400
C1396       C  0.24373402  0.89058579  0.75761702     0.01600
C1397       C  0.22192425  0.89230055  0.73688726    -0.14500
C1398       C  0.20227513  0.89024955  0.76452417    -0.12200
C1399       C  0.20353550  0.88686994  0.81382106     0.01100
C1400       C  0.22501630  0.88675289  0.83533531    -0.24400
H1401       H  0.28437308  0.88895559  0.61660537     0.09100
H1402       H  0.24952474  0.89400165  0.65944117     0.12700
H1403       H  0.32160927  0.88160413  0.74710548     0.11400
H1404       H  0.30210296  0.88380753  0.82217748     0.12600
H1405       H  0.26722468  0.88480041  0.86843739     0.11600
H1406       H  0.21943844  0.89443157  0.69927039     0.08700
H1407       H  0.18594707  0.89056244  0.74689744     0.12000
H1408       H  0.22628030  0.88393862  0.87336365     0.13800
loop_ 
_geom_bond_atom_site_label_1 
_geom_bond_atom_site_label_2 
_geom_bond_distance 
_geom_bond_site_symmetry_2 
_ccdc_geom_bond_type 
Fe1          O17   2.058       .  S
Fe1           O7   2.105       .  S
Fe1          O14   2.114       .  S
Fe1           O6   2.052       .  S
Fe1          O12   1.943       .  S
Fe2           O5   2.029       .  S
Fe2           O9   2.094       .  S
Fe2          O13   2.043       .  S
Fe2          O18   2.098       .  S
Fe2          O12   1.938       .  S
Fe3          O21   2.109       .  S
Fe3           O8   2.042       .  S
Fe3          O15   2.043       .  S
Fe3           O4   2.106       .  S
Fe3          O12   1.940       .  S
O4           C11   1.279       .  A
O5           C19   1.265       .  A
O6           C11   1.271       .  A
O7           C10   1.277       .  A
O8           C20   1.265       .  A
O9           C22   1.275       .  A
C10          O15   1.266       .  A
C10        C1299   1.482       .  S
C11        C1343   1.491       .  S
O13          C16   1.268       .  A
O14          C16   1.280       .  A
C16        C1289   1.486       .  S
O17          C22   1.269       .  A
O18          C20   1.275       .  A
C19          O21   1.278       .  A
C19        C1365   1.478       .  S
C20        C1321   1.484       .  S
C22        C1387   1.490       .  S
Fe23         O39   2.107       .  S
Fe23         O29   2.052       .  S
Fe23         O36   2.056       .  S
Fe23         O28   2.101       .  S
Fe23         O34   1.947       .  S
Fe24         O27   2.109       .  S
Fe24         O31   2.042       .  S
Fe24         O35   2.102       .  S
Fe24         O40   2.029       .  S
Fe24         O34   1.940       .  S
Fe25         O43   2.038       .  S
Fe25         O30   2.110       .  S
Fe25         O37   2.105       .  S
Fe25         O26   2.050       .  S
Fe25         O34   1.942       .  S
O26          C33   1.267       .  A
O27          C41   1.277       .  A
O28          C33   1.276       .  A
O29          C32   1.271       .  A
O30          C42   1.278       .  A
O31          C44   1.267       .  A
C32          O37   1.279       .  A
C32        C1355   1.491       .  S
C33        C1245   1.482       .  S
O35          C38   1.277       .  A
O36          C38   1.270       .  A
C38        C1211   1.491       .  S
O39          C44   1.277       .  A
O40          C42   1.264       .  A
C41          O43   1.265       .  A
C41        C1267   1.488       .  S
C42        C1189   1.482       .  S
C44        C1167   1.485       .  S
Fe45         O61   2.055       .  S
Fe45         O51   2.109       .  S
Fe45         O58   2.117       .  S
Fe45         O50   2.046       .  S
Fe45         O56   1.940       .  S
Fe46         O49   2.025       .  S
Fe46         O53   2.097       .  S
Fe46         O57   2.042       .  S
Fe46         O62   2.105   1_554  S
Fe46         O56   1.937       .  S
Fe47         O65   2.112       .  S
Fe47         O52   2.039       .  S
Fe47         O59   2.042       .  S
Fe47         O48   2.101       .  S
Fe47         O56   1.938       .  S
O48          C55   1.278       .  A
O49          C63   1.264       .  A
O50          C55   1.271       .  A
O51          C54   1.278       .  A
O52          C64   1.264   1_554  A
O53          C66   1.276       .  A
C54          O59   1.266       .  A
C54        C1255   1.486       .  S
C55        C1145   1.485       .  S
O57          C60   1.268       .  A
O58          C60   1.280       .  A
C60        C1079   1.490       .  S
O61          C66   1.270       .  A
O62          C64   1.276       .  A
C63          O65   1.279       .  A
C63        C1101   1.479       .  S
C64        C1233   1.486       .  S
C66        C1135   1.489       .  S
Fe67         O83   2.111       .  S
Fe67         O73   2.048       .  S
Fe67         O80   2.053       .  S
Fe67         O72   2.102       .  S
Fe67         O78   1.943       .  S
Fe68         O71   2.108   1_554  S
Fe68         O75   2.047       .  S
Fe68         O79   2.101       .  S
Fe68         O84   2.031       .  S
Fe68         O78   1.937       .  S
Fe69         O87   2.041       .  S
Fe69         O74   2.105       .  S
Fe69         O81   2.096       .  S
Fe69         O70   2.043       .  S
Fe69         O78   1.942       .  S
O70          C77   1.267       .  A
O71          C85   1.277       .  A
O72          C77   1.277       .  A
O73          C76   1.270       .  A
O74          C86   1.276       .  A
O75          C88   1.269       .  A
C76          O81   1.276       .  A
C76        C1157   1.485       .  S
C77        C1333   1.480       .  S
O79          C82   1.277       .  A
O80          C82   1.268       .  A
C82        C1057   1.491       .  S
O83          C88   1.279       .  A
O84          C86   1.265       .  A
C85          O87   1.266   1_556  A
C85        C1311   1.486       .  S
C86        C1047   1.480       .  S
C88        C1013   1.489       .  S
Fe89        O105   2.053       .  S
Fe89         O95   2.108       .  S
Fe89        O102   2.108       .  S
Fe89         O94   2.051       .  S
Fe89        O100   1.939       .  S
Fe90         O93   2.029       .  S
Fe90         O97   2.099       .  S
Fe90        O101   2.052       .  S
Fe90        O106   2.109       .  S
Fe90        O100   1.942       .  S
Fe91        O109   2.108       .  S
Fe91         O96   2.033       .  S
Fe91        O103   2.039       .  S
Fe91         O92   2.103       .  S
Fe91        O100   1.935       .  S
O92          C99   1.278       .  A
O93         C107   1.263       .  A
O94          C99   1.271       .  A
O95          C98   1.277       .  A
O96         C108   1.264   1_556  A
O97         C110   1.277       .  A
C98         O103   1.265       .  A
C98         C947   1.484       .  S
C99         C991   1.489       .  S
O101        C104   1.268       .  A
O102        C104   1.279       .  A
C104        C925   1.489       .  S
O105        C110   1.270       .  A
O106        C108   1.277   1_556  A
C107        O109   1.278       .  A
C107       C1035   1.478       .  S
C108        C981   1.484       .  S
C110       C1399   1.488       .  S
Fe111       O127   2.115       .  S
Fe111       O117   2.058       .  S
Fe111       O124   2.056       .  S
Fe111       O116   2.104       .  S
Fe111       O122   1.942       .  S
Fe112       O115   2.100       .  S
Fe112       O119   2.049       .  S
Fe112       O123   2.095       .  S
Fe112       O128   2.033       .  S
Fe112       O122   1.940       .  S
Fe113       O131   2.038       .  S
Fe113       O118   2.104       .  S
Fe113       O125   2.098       .  S
Fe113       O114   2.042       .  S
Fe113       O122   1.943       .  S
O114        C121   1.267       .  A
O115        C129   1.276   1_556  A
O116        C121   1.278       .  A
O117        C120   1.271       .  A
O118        C130   1.276       .  A
O119        C132   1.268       .  A
C120        O125   1.277       .  A
C120       C1003   1.490       .  S
C121        C881   1.482       .  S
O123        C126   1.275       .  A
O124        C126   1.268       .  A
C126       C1223   1.490       .  S
O127        C132   1.280       .  A
O128        C130   1.264       .  A
C129        O131   1.266   1_554  A
C129        C903   1.482       .  S
C130       C1113   1.480       .  S
C132        C859   1.489       .  S
Fe133       O149   2.056       .  S
Fe133       O139   2.105       .  S
Fe133       O146   2.112       .  S
Fe133       O138   2.058       .  S
Fe133       O144   1.945       .  S
Fe134       O137   2.033       .  S
Fe134       O141   2.092       .  S
Fe134       O145   2.049       .  S
Fe134       O150   2.107       .  S
Fe134       O144   1.944       .  S
Fe135       O153   2.107       .  S
Fe135       O140   2.033       .  S
Fe135       O147   2.034       .  S
Fe135       O136   2.102       .  S
Fe135       O144   1.940       .  S
O136        C143   1.277       .  A
O137        C151   1.263       .  A
O138        C143   1.271       .  A
O139        C142   1.277       .  A
O140        C152   1.265       .  A
O141        C154   1.275       .  A
C142        O147   1.265       .  A
C142        C915   1.479       .  S
C143        C837   1.493       .  S
O145        C148   1.269       .  A
O146        C148   1.280       .  A
C148        C815   1.492       .  S
O149        C154   1.268       .  A
O150        C152   1.277       .  A
C151        O153   1.277       .  A
C151       C1201   1.480       .  S
C152        C893   1.484       .  S
C154       C1123   1.488       .  S
Fe155       O171   2.098       .  S
Fe155       O161   2.057       .  S
Fe155       O168   2.054       .  S
Fe155       O160   2.097       .  S
Fe155       O166   1.946       .  S
Fe156       O159   2.113       .  S
Fe156       O163   2.052       .  S
Fe156       O167   2.101       .  S
Fe156       O172   2.034       .  S
Fe156       O166   1.943       .  S
Fe157       O175   2.035       .  S
Fe157       O162   2.100       .  S
Fe157       O169   2.101       .  S
Fe157       O158   2.043       .  S
Fe157       O166   1.940       .  S
O158        C165   1.266       .  A
O159        C173   1.279       .  A
O160        C165   1.275       .  A
O161        C164   1.272       .  A
O162        C174   1.276       .  A
O163        C176   1.269       .  A
C164        O169   1.277       .  A
C164        C849   1.491       .  S
C165        C969   1.479       .  S
O167        C170   1.277       .  A
O168        C170   1.270       .  A
C170       C1069   1.489       .  S
O171        C176   1.276       .  A
O172        C174   1.263       .  A
C173        O175   1.266       .  A
C173        C959   1.487       .  S
C174       C1377   1.479       .  S
C176        C793   1.486       .  S
Fe177       O193   2.050       .  S
Fe177       O183   2.105       .  S
Fe177       O190   2.109       .  S
Fe177       O182   2.056       .  S
Fe177       O188   1.940       .  S
Fe178       O181   2.025       .  S
Fe178       O185   2.101       .  S
Fe178       O189   2.049       .  S
Fe178       O194   2.108   1_556  S
Fe178       O188   1.939       .  S
Fe179       O197   2.093       .  S
Fe179       O184   2.040       .  S
Fe179       O191   2.042       .  S
Fe179       O180   2.091       .  S
Fe179       O188   1.937       .  S
O180        C187   1.276       .  A
O181        C195   1.262       .  A
O182        C187   1.271       .  A
O183        C186   1.277       .  A
O184        C196   1.266   1_556  A
O185        C198   1.276       .  A
C186        O191   1.265       .  A
C186        C727   1.480       .  S
C187        C771   1.485       .  S
O189        C192   1.268       .  A
O190        C192   1.279       .  A
C192       C1091   1.485       .  S
O193        C198   1.268       .  A
O194        C196   1.278       .  A
C195        O197   1.274       .  A
C195        C683   1.466       .  S
C196        C749   1.486       .  S
C198        C705   1.491       .  S
Fe199       O215   2.116       .  S
Fe199       O205   2.054       .  S
Fe199       O212   2.054       .  S
Fe199       O204   2.107       .  S
Fe199       O210   1.942       .  S
Fe200       O203   2.110       .  S
Fe200       O207   2.045       .  S
Fe200       O211   2.100       .  S
Fe200       O216   2.025       .  S
Fe200       O210   1.937       .  S
Fe201       O219   2.042       .  S
Fe201       O206   2.105       .  S
Fe201       O213   2.096       .  S
Fe201       O202   2.042       .  S
Fe201       O210   1.939       .  S
O202        C209   1.266       .  A
O203        C217   1.277   1_556  A
O204        C209   1.279       .  A
O205        C208   1.270       .  A
O206        C218   1.276       .  A
O207        C220   1.269       .  A
C208        O213   1.277       .  A
C208        C783   1.486       .  S
C209        C595   1.484       .  S
O211        C214   1.276       .  A
O212        C214   1.268       .  A
C214        C673   1.492       .  S
O215        C220   1.281       .  A
O216        C218   1.263       .  A
C217        O219   1.266   1_554  A
C217        C617   1.487       .  S
C218        C639   1.474       .  S
C220       C1025   1.487       .  S
Fe221       O237   2.055       .  S
Fe221       O227   2.101       .  S
Fe221       O234   2.104       .  S
Fe221       O226   2.049       .  S
Fe221       O232   1.944       .  S
Fe222       O225   2.030       .  S
Fe222       O229   2.094       .  S
Fe222       O233   2.049       .  S
Fe222       O238   2.109       .  S
Fe222       O232   1.942       .  S
Fe223       O241   2.098       .  S
Fe223       O228   2.039       .  S
Fe223       O235   2.050       .  S
Fe223       O224   2.100       .  S
Fe223       O232   1.939       .  S
O224        C231   1.277       .  A
O225        C239   1.264       .  A
O226        C231   1.271       .  A
O227        C230   1.276       .  A
O228        C240   1.265       .  A
O229        C242   1.276       .  A
C230        O235   1.266       .  A
C230        C629   1.479       .  S
C231        C529   1.487       .  S
O233        C236   1.269       .  A
O234        C236   1.277       .  A
C236       C1277   1.486       .  S
O237        C242   1.269       .  A
O238        C240   1.276       .  A
C239        O241   1.276       .  A
C239        C585   1.472       .  S
C240        C607   1.488       .  S
C242        C563   1.482       .  S
Fe243       O259   2.104       .  S
Fe243       O249   2.056       .  S
Fe243       O256   2.059       .  S
Fe243       O248   2.097       .  S
Fe243       O254   1.943       .  S
Fe244       O247   2.103       .  S
Fe244       O251   2.055       .  S
Fe244       O255   2.094       .  S
Fe244       O260   2.033       .  S
Fe244       O254   1.945       .  S
Fe245       O263   2.042       .  S
Fe245       O250   2.098       .  S
Fe245       O257   2.094       .  S
Fe245       O246   2.044       .  S
Fe245       O254   1.943       .  S
O246        C253   1.266       .  A
O247        C261   1.275       .  A
O248        C253   1.275       .  A
O249        C252   1.272       .  A
O250        C262   1.275       .  A
O251        C264   1.270       .  A
C252        O257   1.276       .  A
C252        C541   1.488       .  S
C253        C761   1.479       .  S
O255        C258   1.274       .  A
O256        C258   1.269       .  A
C258        C497   1.491       .  S
O259        C264   1.279       .  A
O260        C262   1.265       .  A
C261        O263   1.266       .  A
C261        C739   1.486       .  S
C262        C507   1.471       .  S
C264       C1179   1.487       .  S
Fe265       O281   2.052       .  S
Fe265       O271   2.101       .  S
Fe265       O278   2.112       .  S
Fe265       O270   2.050       .  S
Fe265       O276   1.948       .  S
Fe266       O269   2.034       .  S
Fe266       O273   2.102       .  S
Fe266       O277   2.049       .  S
Fe266       O282   2.110       .  S
Fe266       O276   1.940       .  S
Fe267       O285   2.097       .  S
Fe267       O272   2.045       .  S
Fe267       O279   2.046       .  S
Fe267       O268   2.096       .  S
Fe267       O276   1.941       .  S
O268        C275   1.277       .  A
O269        C283   1.264       .  A
O270        C275   1.270       .  A
O271        C274   1.276       .  A
O272        C284   1.267       .  A
O273        C286   1.277       .  A
C274        O279   1.266       .  A
C274        C441   1.481       .  S
C275        C463   1.486       .  S
O277        C280   1.268       .  A
O278        C280   1.278       .  A
C280        C827   1.485       .  S
O281        C286   1.268       .  A
O282        C284   1.278       .  A
C283        O285   1.276       .  A
C283        C519   1.475       .  S
C284        C431   1.491       .  S
C286        C717   1.491       .  S
Fe287       O303   2.109       .  S
Fe287       O293   2.059       .  S
Fe287       O300   2.061       .  S
Fe287       O292   2.098       .  S
Fe287       O298   1.946       .  S
Fe288       O291   2.099       .  S
Fe288       O295   2.044       .  S
Fe288       O299   2.096       .  S
Fe288       O304   2.029       .  S
Fe288       O298   1.938       .  S
Fe289       O307   2.049       .  S
Fe289       O294   2.096       .  S
Fe289       O301   2.090       .  S
Fe289       O290   2.050       .  S
Fe289       O298   1.942       .  S
O290        C297   1.267       .  A
O291        C305   1.276       .  A
O292        C297   1.276       .  A
O293        C296   1.272       .  A
O294        C306   1.275       .  A
O295        C308   1.267       .  A
C296        O301   1.276       .  A
C296        C475   1.486       .  S
C297        C409   1.481       .  S
O299        C302   1.275       .  A
O300        C302   1.269       .  A
C302        C661   1.492       .  S
O303        C308   1.278       .  A
O304        C306   1.264       .  A
C305        O307   1.267       .  A
C305        C375   1.488       .  S
C306        C573   1.470       .  S
C308        C805   1.483       .  S
Fe309       O325   2.050       .  S
Fe309       O315   2.106       .  S
Fe309       O322   2.114       .  S
Fe309       O314   2.047       .  S
Fe309       O320   1.941       .  S
Fe310       O313   2.031       .  S
Fe310       O317   2.104       .  S
Fe310       O321   2.048       .  S
Fe310       O326   2.114   1_554  S
Fe310       O320   1.940       .  S
Fe311       O329   2.103       .  S
Fe311       O316   2.038       .  S
Fe311       O323   2.044       .  S
Fe311       O312   2.098       .  S
Fe311       O320   1.936       .  S
O312        C319   1.277       .  A
O313        C327   1.265       .  A
O314        C319   1.270       .  A
O315        C318   1.277       .  A
O316        C328   1.265   1_554  A
O317        C330   1.277       .  A
C318        O323   1.266       .  A
C318        C387   1.482       .  S
C319        C353   1.485       .  S
O321        C324   1.269       .  A
O322        C324   1.279       .  A
C324        C937   1.487       .  S
O325        C330   1.269       .  A
O326        C328   1.277       .  A
C327        O329   1.277       .  A
C327        C651   1.477       .  S
C328        C397   1.488       .  S
C330        C551   1.491       .  S
Fe331       O347   2.119       .  S
Fe331       O337   2.050       .  S
Fe331       O344   2.057       .  S
Fe331       O336   2.114       .  S
Fe331       O342   1.940       .  S
Fe332       O335   2.107   1_554  S
Fe332       O339   2.047       .  S
Fe332       O343   2.095       .  S
Fe332       O348   2.030       .  S
Fe332       O342   1.941       .  S
Fe333       O351   2.038       .  S
Fe333       O338   2.096       .  S
Fe333       O345   2.094       .  S
Fe333       O334   2.043       .  S
Fe333       O342   1.942       .  S
O334        C341   1.267       .  A
O335        C349   1.276       .  A
O336        C341   1.280       .  A
O337        C340   1.270       .  A
O338        C350   1.276       .  A
O339        C352   1.269       .  A
C340        O345   1.275       .  A
C340        C365   1.485       .  S
C341        C419   1.486       .  S
O343        C346   1.275       .  A
O344        C346   1.269       .  A
C346        C485   1.489       .  S
O347        C352   1.281       .  A
O348        C350   1.264       .  A
C349        O351   1.265   1_556  A
C349        C453   1.486       .  S
C350        C695   1.472       .  S
C352        C871   1.492       .  S
C353        C354   1.402       .  A
C353        C358   1.405       .  A
C354        C355   1.392       .  A
C354        H367   1.083       .  S
C355        C356   1.413       .  A
C355        H368   1.079       .  S
C356        C362   1.429   1_455  A
C356        C357   1.422       .  A
C357        C359   1.401       .  A
C357        C358   1.409       .  A
C358        H369   1.085       .  S
C359        C360   1.393   1_455  A
C359        H370   1.084       .  S
C360        C361   1.401       .  A
C360        H371   1.084       .  S
C361        C362   1.422       .  A
C361        C366   1.410       .  A
C362        C363   1.412       .  A
C363        C364   1.391       .  A
C363        H372   1.079       .  S
C364        C365   1.401       .  A
C364        H373   1.083       .  S
C365        C366   1.405       .  A
C366        H374   1.085       .  S
C375        C376   1.401       .  A
C375        C380   1.406       .  A
C376        C377   1.399       .  A
C376        H389   1.083       .  S
C377        C378   1.416       .  A
C377        H390   1.077       .  S
C378        C384   1.432       .  A
C378        C379   1.421       .  A
C379        C381   1.400       .  A
C379        C380   1.406       .  A
C380        H391   1.084       .  S
C381        C382   1.391       .  A
C381        H392   1.084       .  S
C382        C383   1.399       .  A
C382        H393   1.084       .  S
C383        C384   1.424       .  A
C383        C388   1.408       .  A
C384        C385   1.414       .  A
C385        C386   1.396       .  A
C385        H394   1.077       .  S
C386        C387   1.402       .  A
C386        H395   1.084       .  S
C387        C388   1.401       .  A
C388        H396   1.084       .  S
C397        C398   1.405       .  A
C397        C402   1.404       .  A
C398        C399   1.394       .  A
C398        H411   1.083       .  S
C399        C400   1.411       .  A
C399        H412   1.078       .  S
C400        C406   1.430       .  A
C400        C401   1.423       .  A
C401        C403   1.400       .  A
C401        C402   1.411       .  A
C402        H413   1.084       .  S
C403        C404   1.393       .  A
C403        H414   1.084       .  S
C404        C405   1.401       .  A
C404        H415   1.084       .  S
C405        C406   1.420       .  A
C405        C410   1.406       .  A
C406        C407   1.416       .  A
C407        C408   1.398       .  A
C407        H416   1.078       .  S
C408        C409   1.399       .  A
C408        H417   1.083       .  S
C409        C410   1.404       .  A
C410        H418   1.085       .  S
C419        C420   1.404       .  A
C419        C424   1.400       .  A
C420        C421   1.399       .  A
C420        H433   1.083       .  S
C421        C422   1.414       .  A
C421        H434   1.077       .  S
C422        C428   1.435       .  A
C422        C423   1.425       .  A
C423        C425   1.398       .  A
C423        C424   1.408       .  A
C424        H435   1.084       .  S
C425        C426   1.389       .  A
C425        H436   1.084       .  S
C426        C427   1.400       .  A
C426        H437   1.084       .  S
C427        C428   1.420       .  A
C427        C432   1.404       .  A
C428        C429   1.418       .  A
C429        C430   1.403       .  A
C429        H438   1.077       .  S
C430        C431   1.402       .  A
C430        H439   1.083       .  S
C431        C432   1.406       .  A
C432        H440   1.084       .  S
C441        C442   1.403       .  A
C441        C446   1.400       .  A
C442        C443   1.397       .  A
C442        H455   1.083       .  S
C443        C444   1.414       .  A
C443        H456   1.078       .  S
C444        C450   1.432       .  A
C444        C445   1.424       .  A
C445        C447   1.398       .  A
C445        C446   1.406       .  A
C446        H457   1.085       .  S
C447        C448   1.388       .  A
C447        H458   1.084       .  S
C448        C449   1.400       .  A
C448        H459   1.084       .  S
C449        C450   1.420       .  A
C449        C454   1.401       .  A
C450        C451   1.418       .  A
C451        C452   1.401       .  A
C451        H460   1.078       .  S
C452        C453   1.401       .  A
C452        H461   1.083       .  S
C453        C454   1.405       .  A
C454        H462   1.085       .  S
C463        C464   1.402       .  A
C463        C468   1.403       .  A
C464        C465   1.399       .  A
C464        H477   1.083       .  S
C465        C466   1.416       .  A
C465        H478   1.077       .  S
C466        C472   1.432   1_655  A
C466        C467   1.421       .  A
C467        C469   1.399       .  A
C467        C468   1.403       .  A
C468        H479   1.084       .  S
C469        C470   1.389   1_655  A
C469        H480   1.084       .  S
C470        C471   1.399       .  A
C470        H481   1.084       .  S
C471        C472   1.423       .  A
C471        C476   1.405       .  A
C472        C473   1.414       .  A
C473        C474   1.397       .  A
C473        H482   1.077       .  S
C474        C475   1.403       .  A
C474        H483   1.083       .  S
C475        C476   1.403       .  A
C476        H484   1.084       .  S
C485        C486   1.403       .  A
C485        C490   1.403       .  A
C486        C487   1.400       .  A
C486        H499   1.083       .  S
C487        C488   1.415       .  A
C487        H500   1.078       .  S
C488        C494   1.435       .  A
C488        C489   1.423       .  A
C489        C491   1.399       .  A
C489        C490   1.408       .  A
C490        H501   1.085       .  S
C491        C492   1.390       .  A
C491        H502   1.084       .  S
C492        C493   1.400       .  A
C492        H503   1.084       .  S
C493        C494   1.422       .  A
C493        C498   1.407       .  A
C494        C495   1.416       .  A
C495        C496   1.401       .  A
C495        H504   1.078       .  S
C496        C497   1.403       .  A
C496        H505   1.083       .  S
C497        C498   1.405       .  A
C498        H506   1.084       .  S
C507        C508   1.400       .  A
C507        C512   1.400       .  A
C508        C509   1.391       .  A
C508        H521   1.084       .  S
C509        C510   1.412       .  A
C509        H522   1.077       .  S
C510        C516   1.425       .  A
C510        C511   1.423       .  A
C511        C513   1.399       .  A
C511        C512   1.405       .  A
C512        H523   1.085       .  S
C513        C514   1.390       .  A
C513        H524   1.084       .  S
C514        C515   1.400       .  A
C514        H525   1.084       .  S
C515        C516   1.420       .  A
C515        C520   1.402       .  A
C516        C517   1.416       .  A
C517        C518   1.394       .  A
C517        H526   1.077       .  S
C518        C519   1.398       .  A
C518        H527   1.083       .  S
C519        C520   1.404       .  A
C520        H528   1.085       .  S
C529        C530   1.402       .  A
C529        C534   1.406       .  A
C530        C531   1.392       .  A
C530        H543   1.083       .  S
C531        C532   1.413       .  A
C531        H544   1.076       .  S
C532        C538   1.430       .  A
C532        C533   1.423       .  A
C533        C535   1.401       .  A
C533        C534   1.411       .  A
C534        H545   1.084       .  S
C535        C536   1.393       .  A
C535        H546   1.084       .  S
C536        C537   1.401       .  A
C536        H547   1.084       .  S
C537        C538   1.422       .  A
C537        C542   1.410       .  A
C538        C539   1.414       .  A
C539        C540   1.394       .  A
C539        H548   1.077       .  S
C540        C541   1.402       .  A
C540        H549   1.083       .  S
C541        C542   1.406       .  A
C542        H550   1.084       .  S
C551        C552   1.403       .  A
C551        C556   1.405       .  A
C552        C553   1.403       .  A
C552        H565   1.083       .  S
C553        C554   1.417       .  A
C553        H566   1.078       .  S
C554        C560   1.435       .  A
C554        C555   1.422       .  A
C555        C557   1.400       .  A
C555        C556   1.405       .  A
C556        H567   1.084       .  S
C557        C558   1.388       .  A
C557        H568   1.084       .  S
C558        C559   1.399       .  A
C558        H569   1.084       .  S
C559        C560   1.424       .  A
C559        C564   1.405       .  A
C560        C561   1.416       .  A
C561        C562   1.401       .  A
C561        H570   1.078       .  S
C562        C563   1.401       .  A
C562        H571   1.083       .  S
C563        C564   1.401       .  A
C564        H572   1.085       .  S
C573        C574   1.400       .  A
C573        C578   1.400       .  A
C574        C575   1.390       .  A
C574        H587   1.084       .  S
C575        C576   1.412       .  A
C575        H588   1.077       .  S
C576        C582   1.425       .  A
C576        C577   1.423       .  A
C577        C579   1.399       .  A
C577        C578   1.404       .  A
C578        H589   1.085       .  S
C579        C580   1.390       .  A
C579        H590   1.084       .  S
C580        C581   1.400       .  A
C580        H591   1.084       .  S
C581        C582   1.420       .  A
C581        C586   1.401       .  A
C582        C583   1.416       .  A
C583        C584   1.394       .  A
C583        H592   1.077       .  S
C584        C585   1.397       .  A
C584        H593   1.083       .  S
C585        C586   1.403       .  A
C586        H594   1.085       .  S
C595        C596   1.399       .  A
C595        C600   1.407       .  A
C596        C597   1.397       .  A
C596        H609   1.083       .  S
C597        C598   1.416       .  A
C597        H610   1.078       .  S
C598        C604   1.429       .  A
C598        C599   1.419       .  A
C599        C601   1.402       .  A
C599        C600   1.406       .  A
C600        H611   1.085       .  S
C601        C602   1.394       .  A
C601        H612   1.084       .  S
C602        C603   1.401       .  A
C602        H613   1.084       .  S
C603        C604   1.423       .  A
C603        C608   1.412       .  A
C604        C605   1.409       .  A
C605        C606   1.392       .  A
C605        H614   1.078       .  S
C606        C607   1.405       .  A
C606        H615   1.083       .  S
C607        C608   1.405       .  A
C608        H616   1.084       .  S
C617        C618   1.404       .  A
C617        C622   1.404       .  A
C618        C619   1.395       .  A
C618        H631   1.083       .  S
C619        C620   1.412       .  A
C619        H632   1.077       .  S
C620        C626   1.431       .  A
C620        C621   1.423       .  A
C621        C623   1.400       .  A
C621        C622   1.410       .  A
C622        H633   1.084       .  S
C623        C624   1.392       .  A
C623        H634   1.084       .  S
C624        C625   1.401       .  A
C624        H635   1.084       .  S
C625        C626   1.421       .  A
C625        C630   1.407       .  A
C626        C627   1.416       .  A
C627        C628   1.398       .  A
C627        H636   1.077       .  S
C628        C629   1.399       .  A
C628        H637   1.083       .  S
C629        C630   1.403       .  A
C630        H638   1.085       .  S
C639        C640   1.402       .  A
C639        C644   1.400       .  A
C640        C641   1.390       .  A
C640        H653   1.084       .  S
C641        C642   1.411       .  A
C641        H654   1.077       .  S
C642        C648   1.426   1_556  A
C642        C643   1.424       .  A
C643        C645   1.398   1_556  A
C643        C644   1.405       .  A
C644        H655   1.085       .  S
C645        C646   1.389       .  A
C645        H656   1.084       .  S
C646        C647   1.400       .  A
C646        H657   1.084       .  S
C647        C648   1.419       .  A
C647        C652   1.400       .  A
C648        C649   1.417   1_554  A
C649        C650   1.396   1_556  A
C649        H658   1.077       .  S
C650        C651   1.399       .  A
C650        H659   1.083       .  S
C651        C652   1.404       .  A
C652        H660   1.085       .  S
C661        C662   1.403       .  A
C661        C666   1.405       .  A
C662        C663   1.401       .  A
C662        H675   1.083       .  S
C663        C664   1.416       .  A
C663        H676   1.078       .  S
C664        C670   1.436       .  A
C664        C665   1.422       .  A
C665        C667   1.400       .  A
C665        C666   1.409       .  A
C666        H677   1.084       .  S
C667        C668   1.391       .  A
C667        H678   1.084       .  S
C668        C669   1.400       .  A
C668        H679   1.084       .  S
C669        C670   1.423       .  A
C669        C674   1.410       .  A
C670        C671   1.415       .  A
C671        C672   1.400       .  A
C671        H680   1.078       .  S
C672        C673   1.404       .  A
C672        H681   1.083       .  S
C673        C674   1.404       .  A
C674        H682   1.085       .  S
C683        C684   1.400       .  A
C683        C688   1.398       .  A
C684        C685   1.390       .  A
C684        H697   1.084       .  S
C685        C686   1.412       .  A
C685        H698   1.077       .  S
C686        C692   1.423       .  A
C686        C687   1.423       .  A
C687        C689   1.398   1_556  A
C687        C688   1.402       .  A
C688        H699   1.085       .  S
C689        C690   1.388       .  A
C689        H700   1.084       .  S
C690        C691   1.400       .  A
C690        H701   1.084       .  S
C691        C692   1.420   1_554  A
C691        C696   1.399       .  A
C692        C693   1.416       .  A
C693        C694   1.394   1_556  A
C693        H702   1.077       .  S
C694        C695   1.398       .  A
C694        H703   1.083       .  S
C695        C696   1.402       .  A
C696        H704   1.085       .  S
C705        C706   1.403       .  A
C705        C710   1.405       .  A
C706        C707   1.396       .  A
C706        H719   1.083       .  S
C707        C708   1.413       .  A
C707        H720   1.076       .  S
C708        C714   1.434       .  A
C708        C709   1.424       .  A
C709        C711   1.401       .  A
C709        C710   1.412       .  A
C710        H721   1.084       .  S
C711        C712   1.393       .  A
C711        H722   1.084       .  S
C712        C713   1.401       .  A
C712        H723   1.084       .  S
C713        C714   1.421       .  A
C713        C718   1.409       .  A
C714        C715   1.416       .  A
C715        C716   1.399       .  A
C715        H724   1.076       .  S
C716        C717   1.401       .  A
C716        H725   1.083       .  S
C717        C718   1.407       .  A
C718        H726   1.084       .  S
C727        C728   1.399       .  A
C727        C732   1.405       .  A
C728        C729   1.398       .  A
C728        H741   1.083       .  S
C729        C730   1.417       .  A
C729        H742   1.078       .  S
C730        C736   1.429       .  A
C730        C731   1.420       .  A
C731        C733   1.401       .  A
C731        C732   1.405       .  A
C732        H743   1.085       .  S
C733        C734   1.392       .  A
C733        H744   1.084       .  S
C734        C735   1.400       .  A
C734        H745   1.084       .  S
C735        C736   1.423       .  A
C735        C740   1.409       .  A
C736        C737   1.411       .  A
C737        C738   1.394       .  A
C737        H746   1.077       .  S
C738        C739   1.404       .  A
C738        H747   1.083       .  S
C739        C740   1.404       .  A
C740        H748   1.084       .  S
C749        C750   1.405       .  A
C749        C754   1.403       .  A
C750        C751   1.395       .  A
C750        H763   1.083       .  S
C751        C752   1.412       .  A
C751        H764   1.078       .  S
C752        C758   1.430       .  A
C752        C753   1.423       .  A
C753        C755   1.399       .  A
C753        C754   1.408       .  A
C754        H765   1.084       .  S
C755        C756   1.391       .  A
C755        H766   1.084       .  S
C756        C757   1.400       .  A
C756        H767   1.084       .  S
C757        C758   1.421       .  A
C757        C762   1.404       .  A
C758        C759   1.417       .  A
C759        C760   1.398       .  A
C759        H768   1.077       .  S
C760        C761   1.399       .  A
C760        H769   1.083       .  S
C761        C762   1.403       .  A
C762        H770   1.085       .  S
C771        C772   1.402       .  A
C771        C776   1.404       .  A
C772        C773   1.397       .  A
C772        H785   1.083       .  S
C773        C774   1.415       .  A
C773        H786   1.077       .  S
C774        C780   1.431       .  A
C774        C775   1.422       .  A
C775        C777   1.400       .  A
C775        C776   1.406       .  A
C776        H787   1.084       .  S
C777        C778   1.390       .  A
C777        H788   1.084       .  S
C778        C779   1.400       .  A
C778        H789   1.084       .  S
C779        C780   1.422       .  A
C779        C784   1.406       .  A
C780        C781   1.415       .  A
C781        C782   1.397       .  A
C781        H790   1.077       .  S
C782        C783   1.402       .  A
C782        H791   1.083       .  S
C783        C784   1.404       .  A
C784        H792   1.084       .  S
C793        C794   1.402       .  A
C793        C798   1.404       .  A
C794        C795   1.400       .  A
C794        H807   1.083       .  S
C795        C796   1.416       .  A
C795        H808   1.078       .  S
C796        C802   1.432       .  A
C796        C797   1.421       .  A
C797        C799   1.400       .  A
C797        C798   1.405       .  A
C798        H809   1.085       .  S
C799        C800   1.390       .  A
C799        H810   1.084       .  S
C800        C801   1.399       .  A
C800        H811   1.084       .  S
C801        C802   1.424       .  A
C801        C806   1.407       .  A
C802        C803   1.414       .  A
C803        C804   1.397       .  A
C803        H812   1.078       .  S
C804        C805   1.403       .  A
C804        H813   1.083       .  S
C805        C806   1.401       .  A
C806        H814   1.085       .  S
C815        C816   1.402       .  A
C815        C820   1.407       .  A
C816        C817   1.401       .  A
C816        H829   1.083       .  S
C817        C818   1.417       .  A
C817        H830   1.078       .  S
C818        C824   1.434       .  A
C818        C819   1.420       .  A
C819        C821   1.401       .  A
C819        C820   1.407       .  A
C820        H831   1.084       .  S
C821        C822   1.391       .  A
C821        H832   1.084       .  S
C822        C823   1.399       .  A
C822        H833   1.084       .  S
C823        C824   1.425       .  A
C823        C828   1.411       .  A
C824        C825   1.414       .  A
C825        C826   1.397       .  A
C825        H834   1.078       .  S
C826        C827   1.402       .  A
C826        H835   1.083       .  S
C827        C828   1.402       .  A
C828        H836   1.085       .  S
C837        C838   1.405       .  A
C837        C842   1.403       .  A
C838        C839   1.404       .  A
C838        H851   1.083       .  S
C839        C840   1.417       .  A
C839        H852   1.078       .  S
C840        C846   1.436   1_655  A
C840        C841   1.422       .  A
C841        C843   1.399       .  A
C841        C842   1.405       .  A
C842        H853   1.084       .  S
C843        C844   1.387   1_655  A
C843        H854   1.084       .  S
C844        C845   1.398       .  A
C844        H855   1.084       .  S
C845        C846   1.423       .  A
C845        C850   1.405       .  A
C846        C847   1.417       .  A
C847        C848   1.404       .  A
C847        H856   1.078       .  S
C848        C849   1.404       .  A
C848        H857   1.083       .  S
C849        C850   1.403       .  A
C850        H858   1.084       .  S
C859        C860   1.405   1_556  A
C859        C864   1.402       .  A
C860        C861   1.400       .  A
C860        H873   1.083       .  S
C861        C862   1.414   1_554  A
C861        H874   1.078       .  S
C862        C868   1.436   1_566  A
C862        C863   1.425       .  A
C863        C865   1.399   1_565  A
C863        C864   1.409       .  A
C864        H875   1.085       .  S
C865        C866   1.390       .  A
C865        H876   1.084       .  S
C866        C867   1.400       .  A
C866        H877   1.084       .  S
C867        C868   1.421   1_556  A
C867        C872   1.406       .  A
C868        C869   1.418       .  A
C869        C870   1.404       .  A
C869        H878   1.078       .  S
C870        C871   1.402       .  A
C870        H879   1.083       .  S
C871        C872   1.406   1_554  A
C872        H880   1.084       .  S
C881        C882   1.399       .  A
C881        C886   1.406       .  A
C882        C883   1.397       .  A
C882        H895   1.083       .  S
C883        C884   1.416       .  A
C883        H896   1.078       .  S
C884        C890   1.428       .  A
C884        C885   1.419       .  A
C885        C887   1.401       .  A
C885        C886   1.404       .  A
C886        H897   1.084       .  S
C887        C888   1.392       .  A
C887        H898   1.084       .  S
C888        C889   1.400       .  A
C888        H899   1.084       .  S
C889        C890   1.423       .  A
C889        C894   1.409       .  A
C890        C891   1.410       .  A
C891        C892   1.392       .  A
C891        H900   1.078       .  S
C892        C893   1.404       .  A
C892        H901   1.083       .  S
C893        C894   1.403       .  A
C894        H902   1.084       .  S
C903        C904   1.400       .  A
C903        C908   1.405       .  A
C904        C905   1.398       .  A
C904        H917   1.083       .  S
C905        C906   1.417       .  A
C905        H918   1.077       .  S
C906        C912   1.429       .  A
C906        C907   1.420       .  A
C907        C909   1.400       .  A
C907        C908   1.402       .  A
C908        H919   1.085       .  S
C909        C910   1.389       .  A
C909        H920   1.084       .  S
C910        C911   1.398       .  A
C910        H921   1.084       .  S
C911        C912   1.425       .  A
C911        C916   1.406       .  A
C912        C913   1.412       .  A
C913        C914   1.393       .  A
C913        H922   1.077       .  S
C914        C915   1.403       .  A
C914        H923   1.084       .  S
C915        C916   1.399       .  A
C916        H924   1.084       .  S
C925        C926   1.400       .  A
C925        C930   1.407       .  A
C926        C927   1.398       .  A
C926        H939   1.083       .  S
C927        C928   1.416       .  A
C927        H940   1.076       .  S
C928        C934   1.433   1_566  A
C928        C929   1.421   1_556  A
C929        C931   1.402       .  A
C929        C930   1.409   1_554  A
C930        H941   1.084   1_556  S
C931        C932   1.393       .  A
C931        H942   1.084       .  S
C932        C933   1.401   1_565  A
C932        H943   1.084       .  S
C933        C934   1.424       .  A
C933        C938   1.412       .  A
C934        C935   1.413   1_554  A
C935        C936   1.395       .  A
C935        H944   1.076       .  S
C936        C937   1.402   1_556  A
C936        H945   1.083       .  S
C937        C938   1.404       .  A
C938        H946   1.084       .  S
C947        C948   1.400       .  A
C947        C952   1.405       .  A
C948        C949   1.400       .  A
C948        H961   1.083       .  S
C949        C950   1.418       .  A
C949        H962   1.078       .  S
C950        C956   1.431       .  A
C950        C951   1.420       .  A
C951        C953   1.400       .  A
C951        C952   1.404       .  A
C952        H963   1.085       .  S
C953        C954   1.390       .  A
C953        H964   1.084       .  S
C954        C955   1.399       .  A
C954        H965   1.084       .  S
C955        C956   1.424       .  A
C955        C960   1.409       .  A
C956        C957   1.411       .  A
C957        C958   1.394       .  A
C957        H966   1.077       .  S
C958        C959   1.406       .  A
C958        H967   1.083       .  S
C959        C960   1.402       .  A
C960        H968   1.084       .  S
C969        C970   1.400       .  A
C969        C974   1.403       .  A
C970        C971   1.397       .  A
C970        H983   1.083       .  S
C971        C972   1.417       .  A
C971        H984   1.078       .  S
C972        C978   1.429       .  A
C972        C973   1.420       .  A
C973        C975   1.400       .  A
C973        C974   1.403       .  A
C974        H985   1.085       .  S
C975        C976   1.390       .  A
C975        H986   1.084       .  S
C976        C977   1.399       .  A
C976        H987   1.084       .  S
C977        C978   1.424       .  A
C977        C982   1.408       .  A
C978        C979   1.411       .  A
C979        C980   1.393       .  A
C979        H988   1.077       .  S
C980        C981   1.405       .  A
C980        H989   1.083       .  S
C981        C982   1.402       .  A
C982        H990   1.084       .  S
C991        C992   1.403       .  A
C991        C996   1.404       .  A
C992        C993   1.402       .  A
C992       H1005   1.083       .  S
C993        C994   1.416       .  A
C993       H1006   1.078       .  S
C994       C1000   1.434   1_455  A
C994        C995   1.422       .  A
C995        C997   1.399       .  A
C995        C996   1.404       .  A
C996       H1007   1.084       .  S
C997        C998   1.388   1_455  A
C997       H1008   1.084       .  S
C998        C999   1.399       .  A
C998       H1009   1.084       .  S
C999       C1000   1.422       .  A
C999       C1004   1.405       .  A
C1000      C1001   1.416       .  A
C1001      C1002   1.402       .  A
C1001      H1010   1.078       .  S
C1002      C1003   1.404       .  A
C1002      H1011   1.083       .  S
C1003      C1004   1.403       .  A
C1004      H1012   1.084       .  S
C1013      C1014   1.402       .  A
C1013      C1018   1.405   1_554  A
C1014      C1015   1.402       .  A
C1014      H1027   1.083       .  S
C1015      C1016   1.418       .  A
C1015      H1028   1.078       .  S
C1016      C1022   1.434   1_554  A
C1016      C1017   1.421   1_554  A
C1017      C1019   1.400       .  A
C1017      C1018   1.405       .  A
C1018      H1029   1.084       .  S
C1019      C1020   1.390       .  A
C1019      H1030   1.084       .  S
C1020      C1021   1.399       .  A
C1020      H1031   1.084       .  S
C1021      C1022   1.425       .  A
C1021      C1026   1.410       .  A
C1022      C1023   1.413   1_556  A
C1023      C1024   1.398   1_554  A
C1023      H1032   1.078       .  S
C1024      C1025   1.404       .  A
C1024      H1033   1.083   1_556  S
C1025      C1026   1.401       .  A
C1026      H1034   1.085       .  S
C1035      C1036   1.404       .  A
C1035      C1040   1.398       .  A
C1036      C1037   1.395       .  A
C1036      H1049   1.084       .  S
C1037      C1038   1.412       .  A
C1037      H1050   1.077       .  S
C1038      C1044   1.429       .  A
C1038      C1039   1.425       .  A
C1039      C1041   1.397   1_556  A
C1039      C1040   1.404       .  A
C1040      H1051   1.085       .  S
C1041      C1042   1.387       .  A
C1041      H1052   1.084       .  S
C1042      C1043   1.399       .  A
C1042      H1053   1.084       .  S
C1043      C1044   1.420   1_554  A
C1043      C1048   1.398       .  A
C1044      C1045   1.418       .  A
C1045      C1046   1.400   1_556  A
C1045      H1054   1.077       .  S
C1046      C1047   1.400       .  A
C1046      H1055   1.083       .  S
C1047      C1048   1.403       .  A
C1048      H1056   1.084       .  S
C1057      C1058   1.402       .  A
C1057      C1062   1.406       .  A
C1058      C1059   1.400       .  A
C1058      H1071   1.083       .  S
C1059      C1060   1.416       .  A
C1059      H1072   1.077       .  S
C1060      C1066   1.434       .  A
C1060      C1061   1.422       .  A
C1061      C1063   1.401       .  A
C1061      C1062   1.408       .  A
C1062      H1073   1.084       .  S
C1063      C1064   1.392       .  A
C1063      H1074   1.084       .  S
C1064      C1065   1.400       .  A
C1064      H1075   1.084       .  S
C1065      C1066   1.423       .  A
C1065      C1070   1.410       .  A
C1066      C1067   1.414       .  A
C1067      C1068   1.398       .  A
C1067      H1076   1.077       .  S
C1068      C1069   1.403       .  A
C1068      H1077   1.083       .  S
C1069      C1070   1.404       .  A
C1070      H1078   1.084       .  S
C1079      C1080   1.402       .  A
C1079      C1084   1.405       .  A
C1080      C1081   1.403       .  A
C1080      H1093   1.083       .  S
C1081      C1082   1.418       .  A
C1081      H1094   1.076       .  S
C1082      C1088   1.434   1_554  A
C1082      C1083   1.421   1_554  A
C1083      C1085   1.400       .  A
C1083      C1084   1.404   1_556  A
C1084      H1095   1.084   1_554  S
C1085      C1086   1.389       .  A
C1085      H1096   1.084       .  S
C1086      C1087   1.398       .  A
C1086      H1097   1.084       .  S
C1087      C1088   1.424       .  A
C1087      C1092   1.407       .  A
C1088      C1089   1.414   1_556  A
C1089      C1090   1.399       .  A
C1089      H1098   1.076       .  S
C1090      C1091   1.403   1_554  A
C1090      H1099   1.084       .  S
C1091      C1092   1.401       .  A
C1092      H1100   1.084       .  S
C1101      C1102   1.404       .  A
C1101      C1106   1.400       .  A
C1102      C1103   1.391       .  A
C1102      H1115   1.084       .  S
C1103      C1104   1.410       .  A
C1103      H1116   1.078       .  S
C1104      C1110   1.427   1_554  A
C1104      C1105   1.424       .  A
C1105      C1107   1.398   1_554  A
C1105      C1106   1.407       .  A
C1106      H1117   1.084       .  S
C1107      C1108   1.390       .  A
C1107      H1118   1.084       .  S
C1108      C1109   1.400       .  A
C1108      H1119   1.084       .  S
C1109      C1110   1.419       .  A
C1109      C1114   1.401       .  A
C1110      C1111   1.417       .  A
C1111      C1112   1.397       .  A
C1111      H1120   1.078       .  S
C1112      C1113   1.399       .  A
C1112      H1121   1.083       .  S
C1113      C1114   1.405       .  A
C1114      H1122   1.085       .  S
C1123      C1124   1.403       .  A
C1123      C1128   1.403       .  A
C1124      C1125   1.400       .  A
C1124      H1137   1.083       .  S
C1125      C1126   1.415       .  A
C1125      H1138   1.077       .  S
C1126      C1132   1.434       .  A
C1126      C1127   1.423       .  A
C1127      C1129   1.399       .  A
C1127      C1128   1.407       .  A
C1128      H1139   1.084       .  S
C1129      C1130   1.390       .  A
C1129      H1140   1.084       .  S
C1130      C1131   1.400       .  A
C1130      H1141   1.084       .  S
C1131      C1132   1.422       .  A
C1131      C1136   1.406       .  A
C1132      C1133   1.416       .  A
C1133      C1134   1.400       .  A
C1133      H1142   1.077       .  S
C1134      C1135   1.403       .  A
C1134      H1143   1.083       .  S
C1135      C1136   1.404       .  A
C1136      H1144   1.084       .  S
C1145      C1146   1.402       .  A
C1145      C1150   1.404       .  A
C1146      C1147   1.393       .  A
C1146      H1159   1.083       .  S
C1147      C1148   1.413       .  A
C1147      H1160   1.076       .  S
C1148      C1154   1.429       .  A
C1148      C1149   1.422       .  A
C1149      C1151   1.400       .  A
C1149      C1150   1.408       .  A
C1150      H1161   1.084       .  S
C1151      C1152   1.392       .  A
C1151      H1162   1.084       .  S
C1152      C1153   1.400       .  A
C1152      H1163   1.084       .  S
C1153      C1154   1.422       .  A
C1153      C1158   1.408       .  A
C1154      C1155   1.413       .  A
C1155      C1156   1.393       .  A
C1155      H1164   1.076       .  S
C1156      C1157   1.402       .  A
C1156      H1165   1.083       .  S
C1157      C1158   1.404       .  A
C1158      H1166   1.084       .  S
C1167      C1168   1.402       .  A
C1167      C1172   1.403       .  A
C1168      C1169   1.394       .  A
C1168      H1181   1.083       .  S
C1169      C1170   1.413       .  A
C1169      H1182   1.078       .  S
C1170      C1176   1.431   1_565  A
C1170      C1171   1.424       .  A
C1171      C1173   1.400   1_565  A
C1171      C1172   1.410       .  A
C1172      H1183   1.085       .  S
C1173      C1174   1.392       .  A
C1173      H1184   1.084       .  S
C1174      C1175   1.401       .  A
C1174      H1185   1.084       .  S
C1175      C1176   1.421       .  A
C1175      C1180   1.408       .  A
C1176      C1177   1.416       .  A
C1177      C1178   1.397       .  A
C1177      H1186   1.077       .  S
C1178      C1179   1.401       .  A
C1178      H1187   1.083       .  S
C1179      C1180   1.406       .  A
C1180      H1188   1.084       .  S
C1189      C1190   1.400       .  A
C1189      C1194   1.405       .  A
C1190      C1191   1.400       .  A
C1190      H1203   1.083       .  S
C1191      C1192   1.418       .  A
C1191      H1204   1.077       .  S
C1192      C1198   1.430       .  A
C1192      C1193   1.420       .  A
C1193      C1195   1.400       .  A
C1193      C1194   1.401       .  A
C1194      H1205   1.085       .  S
C1195      C1196   1.389       .  A
C1195      H1206   1.084       .  S
C1196      C1197   1.398       .  A
C1196      H1207   1.084       .  S
C1197      C1198   1.424       .  A
C1197      C1202   1.406       .  A
C1198      C1199   1.412       .  A
C1199      C1200   1.394       .  A
C1199      H1208   1.078       .  S
C1200      C1201   1.404       .  A
C1200      H1209   1.084       .  S
C1201      C1202   1.400       .  A
C1202      H1210   1.085       .  S
C1211      C1212   1.403       .  A
C1211      C1216   1.405       .  A
C1212      C1213   1.401       .  A
C1212      H1225   1.083       .  S
C1213      C1214   1.416       .  A
C1213      H1226   1.077       .  S
C1214      C1220   1.435       .  A
C1214      C1215   1.422       .  A
C1215      C1217   1.400       .  A
C1215      C1216   1.408       .  A
C1216      H1227   1.084       .  S
C1217      C1218   1.391       .  A
C1217      H1228   1.084       .  S
C1218      C1219   1.400       .  A
C1218      H1229   1.084       .  S
C1219      C1220   1.423       .  A
C1219      C1224   1.408       .  A
C1220      C1221   1.415       .  A
C1221      C1222   1.400       .  A
C1221      H1230   1.077       .  S
C1222      C1223   1.404       .  A
C1222      H1231   1.083       .  S
C1223      C1224   1.404       .  A
C1224      H1232   1.084       .  S
C1233      C1234   1.405       .  A
C1233      C1238   1.404       .  A
C1234      C1235   1.394       .  A
C1234      H1247   1.083       .  S
C1235      C1236   1.411       .  A
C1235      H1248   1.078       .  S
C1236      C1242   1.429       .  A
C1236      C1237   1.422       .  A
C1237      C1239   1.400       .  A
C1237      C1238   1.409       .  A
C1238      H1249   1.084       .  S
C1239      C1240   1.393       .  A
C1239      H1250   1.084       .  S
C1240      C1241   1.401       .  A
C1240      H1251   1.084       .  S
C1241      C1242   1.420       .  A
C1241      C1246   1.406       .  A
C1242      C1243   1.416       .  A
C1243      C1244   1.397       .  A
C1243      H1252   1.078       .  S
C1244      C1245   1.400       .  A
C1244      H1253   1.083       .  S
C1245      C1246   1.405       .  A
C1246      H1254   1.085       .  S
C1255      C1256   1.400       .  A
C1255      C1260   1.407       .  A
C1256      C1257   1.399       .  A
C1256      H1269   1.083       .  S
C1257      C1258   1.417       .  A
C1257      H1270   1.078       .  S
C1258      C1264   1.430       .  A
C1258      C1259   1.419       .  A
C1259      C1261   1.402       .  A
C1259      C1260   1.406       .  A
C1260      H1271   1.084       .  S
C1261      C1262   1.393       .  A
C1261      H1272   1.084       .  S
C1262      C1263   1.400       .  A
C1262      H1273   1.084       .  S
C1263      C1264   1.423       .  A
C1263      C1268   1.411       .  A
C1264      C1265   1.410       .  A
C1265      C1266   1.393       .  A
C1265      H1274   1.078       .  S
C1266      C1267   1.405       .  A
C1266      H1275   1.083       .  S
C1267      C1268   1.404       .  A
C1268      H1276   1.084       .  S
C1277      C1278   1.402       .  A
C1277      C1282   1.403       .  A
C1278      C1279   1.401       .  A
C1278      H1291   1.083       .  S
C1279      C1280   1.417       .  A
C1279      H1292   1.078       .  S
C1280      C1286   1.433   1_545  A
C1280      C1281   1.421       .  A
C1281      C1283   1.400       .  A
C1281      C1282   1.404       .  A
C1282      H1293   1.084       .  S
C1283      C1284   1.389       .  A
C1283      H1294   1.084       .  S
C1284      C1285   1.399   1_545  A
C1284      H1295   1.084       .  S
C1285      C1286   1.424       .  A
C1285      C1290   1.408       .  A
C1286      C1287   1.413       .  A
C1287      C1288   1.397       .  A
C1287      H1296   1.078       .  S
C1288      C1289   1.404       .  A
C1288      H1297   1.083       .  S
C1289      C1290   1.401       .  A
C1290      H1298   1.085       .  S
C1299      C1300   1.400       .  A
C1299      C1304   1.404       .  A
C1300      C1301   1.400       .  A
C1300      H1313   1.083       .  S
C1301      C1302   1.417       .  A
C1301      H1314   1.078       .  S
C1302      C1308   1.430       .  A
C1302      C1303   1.420       .  A
C1303      C1305   1.401       .  A
C1303      C1304   1.404       .  A
C1304      H1315   1.085       .  S
C1305      C1306   1.391       .  A
C1305      H1316   1.084       .  S
C1306      C1307   1.399       .  A
C1306      H1317   1.084       .  S
C1307      C1308   1.423       .  A
C1307      C1312   1.408       .  A
C1308      C1309   1.411       .  A
C1309      C1310   1.395       .  A
C1309      H1318   1.078       .  S
C1310      C1311   1.405       .  A
C1310      H1319   1.083       .  S
C1311      C1312   1.403       .  A
C1312      H1320   1.084       .  S
C1321      C1322   1.401       .  A
C1321      C1326   1.405       .  A
C1322      C1323   1.399       .  A
C1322      H1335   1.083       .  S
C1323      C1324   1.417       .  A
C1323      H1336   1.077       .  S
C1324      C1330   1.431       .  A
C1324      C1325   1.421       .  A
C1325      C1327   1.400       .  A
C1325      C1326   1.403       .  A
C1326      H1337   1.084       .  S
C1327      C1328   1.389       .  A
C1327      H1338   1.084       .  S
C1328      C1329   1.398       .  A
C1328      H1339   1.084       .  S
C1329      C1330   1.424       .  A
C1329      C1334   1.406       .  A
C1330      C1331   1.413       .  A
C1331      C1332   1.396       .  A
C1331      H1340   1.077       .  S
C1332      C1333   1.402       .  A
C1332      H1341   1.084       .  S
C1333      C1334   1.400       .  A
C1334      H1342   1.084       .  S
C1343      C1344   1.404       .  A
C1343      C1348   1.405       .  A
C1344      C1345   1.396       .  A
C1344      H1357   1.083       .  S
C1345      C1346   1.414       .  A
C1345      H1358   1.077       .  S
C1346      C1352   1.433       .  A
C1346      C1347   1.423       .  A
C1347      C1349   1.400       .  A
C1347      C1348   1.411       .  A
C1348      H1359   1.084       .  S
C1349      C1350   1.393       .  A
C1349      H1360   1.084       .  S
C1350      C1351   1.401       .  A
C1350      H1361   1.084       .  S
C1351      C1352   1.423       .  A
C1351      C1356   1.411       .  A
C1352      C1353   1.414       .  A
C1353      C1354   1.396       .  A
C1353      H1362   1.077       .  S
C1354      C1355   1.404       .  A
C1354      H1363   1.083       .  S
C1355      C1356   1.405       .  A
C1356      H1364   1.084       .  S
C1365      C1366   1.403       .  A
C1365      C1370   1.401       .  A
C1366      C1367   1.392       .  A
C1366      H1379   1.084       .  S
C1367      C1368   1.411       .  A
C1367      H1380   1.078       .  S
C1368      C1374   1.427       .  A
C1368      C1369   1.424       .  A
C1369      C1371   1.399       .  A
C1369      C1370   1.407       .  A
C1370      H1381   1.084       .  S
C1371      C1372   1.390       .  A
C1371      H1382   1.084       .  S
C1372      C1373   1.401       .  A
C1372      H1383   1.084       .  S
C1373      C1374   1.420       .  A
C1373      C1378   1.402       .  A
C1374      C1375   1.416       .  A
C1375      C1376   1.396       .  A
C1375      H1384   1.077       .  S
C1376      C1377   1.399       .  A
C1376      H1385   1.083       .  S
C1377      C1378   1.405       .  A
C1378      H1386   1.085       .  S
C1387      C1388   1.403       .  A
C1387      C1392   1.405       .  A
C1388      C1389   1.399       .  A
C1388      H1401   1.083       .  S
C1389      C1390   1.416       .  A
C1389      H1402   1.076       .  S
C1390      C1396   1.434       .  A
C1390      C1391   1.422       .  A
C1391      C1393   1.400       .  A
C1391      C1392   1.408       .  A
C1392      H1403   1.084       .  S
C1393      C1394   1.391       .  A
C1393      H1404   1.084       .  S
C1394      C1395   1.400       .  A
C1394      H1405   1.084       .  S
C1395      C1396   1.423       .  A
C1395      C1400   1.409       .  A
C1396      C1397   1.415       .  A
C1397      C1398   1.398       .  A
C1397      H1406   1.077       .  S
C1398      C1399   1.403       .  A
C1398      H1407   1.083       .  S
C1399      C1400   1.404       .  A
C1400      H1408   1.084       .  S
