geometry optimzed in LAMMPS
_audit_creation_date              2020-12-01 
_audit_creation_method            'lammps2cif' 
_symmetry_space_group_name_H-M    'P1' 
_symmetry_Int_Tables_number       1 
_symmetry_cell_setting            triclinic 
loop_ 
_symmetry_equiv_pos_as_xyz 
  x,y,z 
_cell_length_a                    46.03076839 
_cell_length_b                    37.23582629558505 
_cell_length_c                    44.182106158928796 
_cell_angle_alpha                 89.99917102756608 
_cell_angle_beta                  97.96275526807985 
_cell_angle_gamma                 89.99529427979508 
loop_ 
_atom_site_label 
_atom_site_type_symbol 
_atom_site_fract_x 
_atom_site_fract_y 
_atom_site_fract_z 
_atom_site_charge 
Fe1        Fe  0.12487509  0.62669047  0.34685719     1.65800
Fe2        Fe  0.08035233  0.61152280  0.28111086     1.73200
Fe3        Fe  0.12683670  0.54706138  0.31045487     1.54400
O4          O  0.16873483  0.56151325  0.33142434    -0.80100
O5          O  0.05468133  0.56990353  0.28998430    -0.78400
O6          O  0.16789152  0.62040241  0.34046166    -0.82600
O7          O  0.12864863  0.58387967  0.37853999    -0.77500
O8          O  0.13903548  0.55744659  0.26857894    -0.79200
O9          O  0.05807925  0.64189607  0.31049770    -0.82000
C10         C  0.12189736  0.55054202  0.37692707     0.98800
C11         C  0.18145124  0.59086021  0.34000428     1.06200
O12         O  0.11106813  0.59535598  0.31278848    -1.11000
O13         O  0.10462051  0.65445635  0.27122892    -0.73400
O14         O  0.12273568  0.67279281  0.31833473    -0.76900
O15         O  0.11530796  0.53399906  0.35191340    -0.77600
C16         C  0.11681115  0.67788857  0.28944056     0.97700
O17         O  0.08301757  0.63428640  0.35684349    -0.75500
O18         O  0.09701088  0.58170181  0.24693218    -0.80700
C19         C  0.06079450  0.53753317  0.28568145     1.00300
C20         C  0.12036140  0.56378024  0.24539322     1.06200
O21         O  0.08693471  0.52551501  0.28938769    -0.76400
C22         C  0.05981217  0.64254361  0.33946271     1.04500
Fe23       Fe  0.37655287  0.62689043  0.40244518     1.65800
Fe24       Fe  0.42097569  0.61165753  0.46825377     1.73200
Fe25       Fe  0.37453507  0.54722410  0.43877776     1.54400
O26         O  0.33266764  0.56170012  0.41774961    -0.80100
O27         O  0.44667097  0.57003892  0.45942640    -0.78400
O28         O  0.33350902  0.62059954  0.40875282    -0.82600
O29         O  0.37281903  0.58411254  0.37073460    -0.77500
O30         O  0.36226027  0.55755453  0.48062904    -0.79200
O31         O  0.44331563  0.64203204  0.43892779    -0.82000
C32         C  0.37957300  0.55077477  0.37233438     0.98800
C33         C  0.31995451  0.59104853  0.40916318     1.06200
O34         O  0.39030701  0.59552257  0.43651328    -1.11000
O35         O  0.39669434  0.65459883  0.47810499    -0.73400
O36         O  0.37866198  0.67297516  0.43098673    -0.76900
O37         O  0.38613876  0.53421074  0.39734153    -0.77600
C38         C  0.38455135  0.67805605  0.45988526     0.97700
O39         O  0.41844011  0.63447187  0.39254523    -0.75500
O40         O  0.40424220  0.58182060  0.00237331    -0.80700
C41         C  0.44054584  0.53765429  0.46364374     1.00300
C42         C  0.38088854  0.56388665  0.00385175     1.06200
O43         O  0.41440588  0.52564541  0.45988343    -0.76400
C44         C  0.44162981  0.64268916  0.40996633     1.04500
Fe45       Fe  0.37638305  0.37805967  0.15235356     1.65800
Fe46       Fe  0.42104884  0.39311824  0.21806163     1.73200
Fe47       Fe  0.37501490  0.45794760  0.18849637     1.54400
O48         O  0.38660036  0.47055578  0.14698253    -0.80100
O49         O  0.40455181  0.42325267  0.25218556    -0.78400
O50         O  0.37283154  0.42069377  0.12053382    -0.82600
O51         O  0.33337664  0.38489503  0.15870516    -0.77500
O52         O  0.41509760  0.47919189  0.20938945    -0.79200
O53         O  0.39651353  0.35047137  0.22805016    -0.82000
C54         C  0.32002459  0.41460429  0.15908773     0.98800
C55         C  0.37977824  0.45396642  0.12203422     1.06200
O56         O  0.39042285  0.40944425  0.18633726    -1.11000
O57         O  0.44316541  0.36242578  0.18872469    -0.73400
O58         O  0.41822041  0.36997793  0.14237387    -0.76900
O59         O  0.33296886  0.44383819  0.16761937    -0.77600
C60         C  0.44142674  0.36169185  0.15975595     0.97700
O61         O  0.37822430  0.33209564  0.18101020    -0.75500
O62         O  0.44702578  0.43439092  0.20912122    -0.80700
C63         C  0.38134187  0.44148327  0.25367829     1.00300
C64         C  0.44115133  0.46689491  0.21312646     1.06200
O65         O  0.36278721  0.44808765  0.23045107    -0.76400
C66         C  0.38414783  0.32708018  0.20991313     1.04500
Fe67       Fe  0.12487320  0.37793092  0.09693359     1.65800
Fe68       Fe  0.08028981  0.39293384  0.03115227     1.73200
Fe69       Fe  0.12628022  0.45778634  0.06074566     1.54400
O70         O  0.11463417  0.47043339  0.10222671    -0.80100
O71         O  0.09684056  0.42302765  0.49703983    -0.78400
O72         O  0.12836631  0.42059014  0.12872361    -0.82600
O73         O  0.16790154  0.38476183  0.09065747    -0.77500
O74         O  0.08621855  0.47901940  0.03979112    -0.79200
O75         O  0.10484957  0.35027118  0.02124282    -0.82000
C76         C  0.18124828  0.41447192  0.09026605     0.98800
C77         C  0.12141930  0.45386303  0.12719128     1.06200
O78         O  0.11087306  0.40928636  0.06291127    -1.11000
O79         O  0.05812306  0.36228232  0.06047136    -0.73400
O80         O  0.08301268  0.36986095  0.10684491    -0.76900
O81         O  0.16830545  0.44369342  0.08168763    -0.77600
C82         C  0.05982330  0.36157555  0.08943761     0.97700
O83         O  0.12308630  0.33194158  0.06831328    -0.75500
O84         O  0.05428507  0.43422021  0.04000415    -0.80700
C85         C  0.12005204  0.44126066  0.49557451     1.00300
C86         C  0.06016646  0.46672571  0.03602017     1.06200
O87         O  0.13857072  0.44789177  0.01882376    -0.76400
C88         C  0.11720002  0.32689863  0.03941146     1.04500
Fe89       Fe  0.37505778  0.87802245  0.09701332     1.65800
Fe90       Fe  0.33038125  0.89312155  0.03131755     1.73200
Fe91       Fe  0.37639436  0.95794201  0.06091550     1.54400
O92         O  0.36480146  0.97050578  0.10243544    -0.80100
O93         O  0.34687004  0.92329033  0.49720901    -0.78400
O94         O  0.37860509  0.92063167  0.12885584    -0.82600
O95         O  0.41805980  0.88487732  0.09065498    -0.77500
O96         O  0.33630592  0.97918763  0.04002700    -0.79200
O97         O  0.35492779  0.85049159  0.02130415    -0.82000
C98         C  0.43140155  0.91459321  0.09029121     0.98800
C99         C  0.37164147  0.95390099  0.12737448     1.06200
O100        O  0.36100396  0.90943072  0.06304808    -1.11000
O101        O  0.30827758  0.86239731  0.06064202    -0.73400
O102        O  0.33322505  0.86992084  0.10699508    -0.76900
O103        O  0.41844537  0.94383120  0.08178555    -0.77600
C104        C  0.31001963  0.86164145  0.08961078     0.97700
O105        O  0.37322145  0.83208053  0.06833365    -0.75500
O106        O  0.30439131  0.93437793  0.04028108    -0.80700
C107        C  0.37007490  0.94153051  0.49572598     1.00300
C108        C  0.31025589  0.96688417  0.03627804     1.06200
O109        O  0.38862711  0.94812326  0.01895681    -0.76400
C110        C  0.36729631  0.82708679  0.03942849     1.04500
Fe111      Fe  0.12657717  0.87789192  0.15240282     1.65800
Fe112      Fe  0.17115391  0.89293001  0.21818097     1.73200
Fe113      Fe  0.12517458  0.95777801  0.18853947     1.54400
O114        O  0.13683173  0.97038027  0.14705437    -0.80100
O115        O  0.15459780  0.92305947  0.25227139    -0.78400
O116        O  0.12308463  0.92052538  0.12058723    -0.82600
O117        O  0.08354873  0.88474404  0.15867370    -0.77500
O118        O  0.16523481  0.97900989  0.20949192    -0.79200
O119        O  0.14658759  0.85028640  0.22811021    -0.82000
C120        C  0.07020414  0.91446063  0.15904496     0.98800
C121        C  0.13003839  0.95379480  0.12209972     1.06200
O122        O  0.14057673  0.90926936  0.18640754    -1.11000
O123        O  0.19332217  0.86224572  0.18888252    -0.73400
O124        O  0.16843884  0.86980062  0.14250149    -0.76900
O125        O  0.08315002  0.94368521  0.16759966    -0.77600
C126        C  0.19162594  0.86151981  0.15991675     0.97700
O127        O  0.12836170  0.83192516  0.18104772    -0.75500
O128        O  0.19716645  0.93419807  0.20931204    -0.80700
C129        C  0.13138754  0.94130619  0.25372029     1.00300
C130        C  0.19128604  0.96670786  0.21328238     1.06200
O131        O  0.11287409  0.94792757  0.23046348    -0.76400
C132        C  0.13424094  0.82690361  0.20995264     1.04500
Fe133      Fe  0.12653512  0.12671837  0.40247498     1.65800
Fe134      Fe  0.17106972  0.11150510  0.46820789     1.73200
Fe135      Fe  0.12460429  0.04705390  0.43882798     1.54400
O136        O  0.08270168  0.06150855  0.41786635    -0.80100
O137        O  0.19675201  0.06989967  0.45931141    -0.78400
O138        O  0.08352271  0.12040945  0.40887711    -0.82600
O139        O  0.12276595  0.08393385  0.37076686    -0.77500
O140        O  0.11240048  0.05739537  0.48070852    -0.79200
O141        O  0.19333257  0.14190720  0.43883364    -0.82000
C142        C  0.12953344  0.05059886  0.37235883     0.98800
C143        C  0.06997339  0.09086003  0.40931363     1.06200
O144        O  0.14035627  0.09535738  0.43652361    -1.11000
O145        O  0.14679395  0.15442602  0.47811670    -0.73400
O146        O  0.12866949  0.17279807  0.43102298    -0.76900
O147        O  0.13614018  0.03403829  0.39736245    -0.77600
C148        C  0.13459897  0.17787264  0.45991929     0.97700
O149        O  0.16838816  0.13433539  0.39248604    -0.75500
O150        O  0.15441657  0.08165124  0.00236996    -0.80700
C151        C  0.19064776  0.03752609  0.46360723     1.00300
C152        C  0.13107105  0.06371967  0.00389826     1.06200
O153        O  0.16451089  0.02550263  0.45988860    -0.76400
C154        C  0.19159446  0.14258053  0.40986847     1.04500
Fe155      Fe  0.37485075  0.12691977  0.34691190     1.65800
Fe156      Fe  0.33043366  0.11165404  0.28110669     1.73200
Fe157      Fe  0.37686079  0.04722099  0.31063157     1.54400
O158        O  0.41872824  0.06169483  0.33165633    -0.80100
O159        O  0.30472917  0.07005408  0.28994988    -0.78400
O160        O  0.41789438  0.12060433  0.34060895    -0.82600
O161        O  0.37858226  0.08416729  0.37864897    -0.77500
O162        O  0.38914544  0.05750522  0.26877761    -0.79200
O163        O  0.30809207  0.14206029  0.31041294    -0.82000
C164        C  0.37182062  0.05083286  0.37706974     0.98800
C165        C  0.43144552  0.09104581  0.34021867     1.06200
O166        O  0.36109576  0.09553003  0.31286163    -1.11000
O167        O  0.35472180  0.15457764  0.27123534    -0.73400
O168        O  0.37274606  0.17298324  0.31834525    -0.76900
O169        O  0.36524637  0.03425334  0.35207260    -0.77600
C170        C  0.36686241  0.17804462  0.28944374     0.97700
O171        O  0.33296254  0.13452476  0.35680249    -0.75500
O172        O  0.34717246  0.08178173  0.24700911    -0.80700
C173        C  0.31085207  0.03766373  0.28574978     1.00300
C174        C  0.37052364  0.06383125  0.24554729     1.06200
O175        O  0.33699060  0.02564473  0.28952979    -0.76400
C176        C  0.30977439  0.14273600  0.33937400     1.04500
C177        C  0.21720446  0.15159451  0.39593144    -0.16900
C178        C  0.23835042  0.15505540  0.38266508     0.07100
C179        C  0.26295304  0.15509781  0.36649936     0.09000
C180        C  0.28412006  0.15170103  0.35325504    -0.17800
C181        C  0.46204335  0.09035737  0.35236151    -0.16900
C182        C  0.48661055  0.09003386  0.36607840     0.07100
C183        C  0.01478287  0.08996462  0.38353818     0.09000
C184        C  0.03936088  0.09019572  0.39723066    -0.17800
C185        C  0.21526804  0.98853749  0.22579441    -0.16900
C186        C  0.23783929  0.99841141  0.24019520     0.07100
C187        C  0.26460125  0.00575278  0.25839013     0.09000
C188        C  0.28707073  0.01569749  0.27294806    -0.17800
C189        C  0.12861288  0.02951105  0.34503072    -0.16900
C190        C  0.12761438  0.00748666  0.32486653     0.07100
C191        C  0.12706397  0.98040603  0.30234647     0.09000
C192        C  0.12792799  0.95942523  0.28167130    -0.17800
C193        C  0.12769641  0.04545372  0.03178531    -0.16900
C194        C  0.12701837  0.02426959  0.05233555     0.07100
C195        C  0.12783637  0.99696759  0.07467391     0.09000
C196        C  0.12902330  0.97483113  0.09475389    -0.17800
C197        C  0.21444483  0.01561344  0.47647430    -0.16900
C198        C  0.23691689  0.00574823  0.49108380     0.07100
C199        C  0.26367772  0.99850310  0.00932410     0.09000
C200        C  0.28625737  0.98869028  0.02375328    -0.17800
C201        C  0.37348374  0.95967439  0.46777309    -0.16900
C202        C  0.37431056  0.98066509  0.44709816     0.07100
C203        C  0.37372925  0.00774712  0.42457612     0.09000
C204        C  0.37272204  0.02976497  0.40440602    -0.17800
C205        C  0.37396131  0.04555110  0.21768383    -0.16900
C206        C  0.37467845  0.02435680  0.19714822     0.07100
C207        C  0.37388352  0.99704857  0.17481826     0.09000
C208        C  0.37269269  0.97491557  0.15473564    -0.17800
C209        C  0.28439482  0.85254065  0.10354391    -0.16900
C210        C  0.26319261  0.84906973  0.11675142     0.07100
C211        C  0.23850023  0.84903786  0.13282926     0.09000
C212        C  0.21728314  0.85245976  0.14602192    -0.17800
C213        C  0.03957129  0.91545818  0.14692951    -0.16900
C214        C  0.01494706  0.91590800  0.13330283     0.07100
C215        C  0.48667634  0.91595254  0.11597597     0.09000
C216        C  0.46204475  0.91556456  0.10236558    -0.17800
C217        C  0.12352271  0.29310370  0.02584162    -0.16900
C218        C  0.12556122  0.26708097  0.00985649     0.07100
C219        C  0.12654634  0.23783293  0.48941291     0.09000
C220        C  0.12849046  0.21176933  0.47344832    -0.17800
C221        C  0.37295314  0.21195169  0.27592071    -0.16900
C222        C  0.37487803  0.23802378  0.25995987     0.07100
C223        C  0.37583785  0.26727690  0.23951470     0.09000
C224        C  0.37785288  0.29329576  0.22351788    -0.17800
C225        C  0.28938421  0.41557536  0.14700192    -0.16900
C226        C  0.26475883  0.41596356  0.13337627     0.07100
C227        C  0.23649737  0.41591863  0.11603004     0.09000
C228        C  0.21187884  0.41546829  0.10238952    -0.17800
C229        C  0.46705551  0.35260693  0.14582107    -0.16900
C230        C  0.48825949  0.34914407  0.13261392     0.07100
C231        C  0.01295257  0.34911390  0.11653627     0.09000
C232        C  0.03416858  0.35253012  0.10334127    -0.17800
C233        C  0.37846493  0.71197409  0.47339271    -0.16900
C234        C  0.37654755  0.73804985  0.48935104     0.07100
C235        C  0.37559790  0.76729931  0.00980092     0.09000
C236        C  0.37358944  0.79331138  0.02580694    -0.17800
C237        C  0.37867558  0.52968702  0.34500984    -0.16900
C238        C  0.37767329  0.50766357  0.32484524     0.07100
C239        C  0.37709791  0.48058496  0.30232155     0.09000
C240        C  0.37792909  0.45960510  0.28164009    -0.17800
C241        C  0.37745576  0.54562858  0.03172675    -0.16900
C242        C  0.37674221  0.52444498  0.05227111     0.07100
C243        C  0.37753949  0.49713985  0.07460489     0.09000
C244        C  0.37873004  0.47500095  0.09468353    -0.17800
C245        C  0.46433016  0.51568459  0.47643742    -0.16900
C246        C  0.48681317  0.50574898  0.49097631     0.07100
C247        C  0.01359457  0.49842494  0.00914197     0.09000
C248        C  0.03618016  0.48855946  0.02352101    -0.17800
C249        C  0.12791398  0.79312148  0.22353811    -0.16900
C250        C  0.12586859  0.76710584  0.23952868     0.07100
C251        C  0.12487431  0.73786000  0.25997194     0.09000
C252        C  0.12292337  0.71179281  0.27592972    -0.17800
C253        C  0.12350659  0.45935585  0.46761150    -0.16900
C254        C  0.12436673  0.48032510  0.44692721     0.07100
C255        C  0.12381345  0.50740218  0.42440332     0.09000
C256        C  0.12281487  0.52943268  0.40424343    -0.17800
C257        C  0.12242923  0.47491888  0.15452588    -0.16900
C258        C  0.12360981  0.49706103  0.17460062     0.07100
C259        C  0.12442074  0.52435981  0.19694080     0.09000
C260        C  0.12373846  0.54553403  0.21749747    -0.17800
C261        C  0.21206130  0.59019667  0.35209742    -0.16900
C262        C  0.23663357  0.58996725  0.36580396     0.07100
C263        C  0.26479714  0.59003868  0.38328188     0.09000
C264        C  0.28935891  0.59036285  0.39701210    -0.17800
C265        C  0.46728125  0.65164234  0.39607734    -0.16900
C266        C  0.48844715  0.65503590  0.38283107     0.07100
C267        C  0.01305041  0.65499668  0.36666597     0.09000
C268        C  0.03419832  0.65154351  0.35340043    -0.17800
C269        C  0.46514760  0.48870818  0.22563160    -0.16900
C270        C  0.48773853  0.49851943  0.24003451     0.07100
C271        C  0.01451669  0.50575598  0.25824137     0.09000
C272        C  0.03699940  0.51561695  0.27282776    -0.17800
Fe273      Fe  0.12487509  0.62669045  0.84685720     1.65800
Fe274      Fe  0.08035232  0.61152277  0.78111088     1.73200
Fe275      Fe  0.12683671  0.54706136  0.81045488     1.54400
O276        O  0.16873484  0.56151323  0.83142434    -0.80100
O277        O  0.05468133  0.56990351  0.78998434    -0.78400
O278        O  0.16789152  0.62040239  0.84046167    -0.82600
O279        O  0.12864863  0.58387966  0.87854000    -0.77500
O280        O  0.13903547  0.55744658  0.76857893    -0.79200
O281        O  0.05807925  0.64189605  0.81049770    -0.82000
C282        C  0.12189737  0.55054198  0.87692710     0.98800
C283        C  0.18145127  0.59086020  0.84000430     1.06200
O284        O  0.11106813  0.59535596  0.81278849    -1.11000
O285        O  0.10462049  0.65445632  0.77122891    -0.73400
O286        O  0.12273569  0.67279279  0.81833471    -0.76900
O287        O  0.11530798  0.53399904  0.85191340    -0.77600
C288        C  0.11681115  0.67788853  0.78944055     0.97700
O289        O  0.08301758  0.63428639  0.85684349    -0.75500
O290        O  0.09701086  0.58170177  0.74693219    -0.80700
C291        C  0.06079451  0.53753314  0.78568148     1.00300
C292        C  0.12036139  0.56378021  0.74539323     1.06200
O293        O  0.08693471  0.52551499  0.78938770    -0.76400
C294        C  0.05981216  0.64254360  0.83946272     1.04500
Fe295      Fe  0.37655288  0.62689041  0.90244520     1.65800
Fe296      Fe  0.42097574  0.61165750  0.96825377     1.73200
Fe297      Fe  0.37453507  0.54722411  0.93877779     1.54400
O298        O  0.33266765  0.56170011  0.91774963    -0.80100
O299        O  0.44667099  0.57003887  0.95942638    -0.78400
O300        O  0.33350904  0.62059953  0.90875286    -0.82600
O301        O  0.37281905  0.58411251  0.87073463    -0.77500
O302        O  0.36226029  0.55755458  0.98062907    -0.79200
O303        O  0.44331568  0.64203198  0.93892777    -0.82000
C304        C  0.37957302  0.55077475  0.87233443     0.98800
C305        C  0.31995450  0.59104852  0.90916319     1.06200
O306        O  0.39030704  0.59552256  0.93651330    -1.11000
O307        O  0.39669443  0.65459884  0.97810500    -0.73400
O308        O  0.37866200  0.67297514  0.93098676    -0.76900
O309        O  0.38613877  0.53421071  0.89734157    -0.77600
C310        C  0.38455141  0.67805603  0.95988527     0.97700
O311        O  0.41844011  0.63447187  0.89254523    -0.75500
O312        O  0.40424216  0.58182061  0.50237330    -0.80700
C313        C  0.44054584  0.53765424  0.96364376     1.00300
C314        C  0.38088852  0.56388662  0.50385173     1.06200
O315        O  0.41440587  0.52564540  0.95988349    -0.76400
C316        C  0.44162983  0.64268913  0.90996632     1.04500
Fe317      Fe  0.37638307  0.37805966  0.65235358     1.65800
Fe318      Fe  0.42104886  0.39311825  0.71806165     1.73200
Fe319      Fe  0.37501490  0.45794760  0.68849639     1.54400
O320        O  0.38660035  0.47055579  0.64698254    -0.80100
O321        O  0.40455182  0.42325267  0.75218558    -0.78400
O322        O  0.37283156  0.42069376  0.62053384    -0.82600
O323        O  0.33337665  0.38489503  0.65870518    -0.77500
O324        O  0.41509760  0.47919191  0.70938947    -0.79200
O325        O  0.39651356  0.35047137  0.72805019    -0.82000
C326        C  0.32002460  0.41460428  0.65908775     0.98800
C327        C  0.37977825  0.45396641  0.62203424     1.06200
O328        O  0.39042286  0.40944425  0.68633728    -1.11000
O329        O  0.44316544  0.36242580  0.68872471    -0.73400
O330        O  0.41822042  0.36997791  0.64237389    -0.76900
O331        O  0.33296886  0.44383819  0.66761940    -0.77600
C332        C  0.44142676  0.36169185  0.65975597     0.97700
O333        O  0.37822431  0.33209565  0.68101023    -0.75500
O334        O  0.44702578  0.43439095  0.70912125    -0.80700
C335        C  0.38134188  0.44148327  0.75367831     1.00300
C336        C  0.44115133  0.46689493  0.71312647     1.06200
O337        O  0.36278722  0.44808766  0.73045111    -0.76400
C338        C  0.38414786  0.32708017  0.70991316     1.04500
Fe339      Fe  0.12487320  0.37793090  0.59693359     1.65800
Fe340      Fe  0.08028982  0.39293383  0.53115225     1.73200
Fe341      Fe  0.12628025  0.45778633  0.56074565     1.54400
O342        O  0.11463421  0.47043339  0.60222671    -0.80100
O343        O  0.09684053  0.42302765  0.99703985    -0.78400
O344        O  0.12836631  0.42059013  0.62872361    -0.82600
O345        O  0.16790154  0.38476180  0.59065749    -0.77500
O346        O  0.08621858  0.47901939  0.53979112    -0.79200
O347        O  0.10484959  0.35027118  0.52124282    -0.82000
C348        C  0.18124829  0.41447188  0.59026605     0.98800
C349        C  0.12141933  0.45386301  0.62719126     1.06200
O350        O  0.11087308  0.40928635  0.56291126    -1.11000
O351        O  0.05812307  0.36228232  0.56047133    -0.73400
O352        O  0.08301269  0.36986096  0.60684490    -0.76900
O353        O  0.16830548  0.44369338  0.58168762    -0.77600
C354        C  0.05982328  0.36157554  0.58943761     0.97700
O355        O  0.12308630  0.33194157  0.56831329    -0.75500
O356        O  0.05428509  0.43422021  0.54000412    -0.80700
C357        C  0.12005203  0.44126067  0.99557450     1.00300
C358        C  0.06016648  0.46672571  0.53602015     1.06200
O359        O  0.13857075  0.44789176  0.51882374    -0.76400
C360        C  0.11720003  0.32689860  0.53941146     1.04500
Fe361      Fe  0.37505785  0.87802249  0.59701333     1.65800
Fe362      Fe  0.33038132  0.89312156  0.53131756     1.73200
Fe363      Fe  0.37639437  0.95794206  0.56091552     1.54400
O364        O  0.36480143  0.97050579  0.60243544    -0.80100
O365        O  0.34686995  0.92329034  0.99720900    -0.78400
O366        O  0.37860517  0.92063172  0.62885583    -0.82600
O367        O  0.41805985  0.88487739  0.59065494    -0.77500
O368        O  0.33630594  0.97918766  0.54002698    -0.79200
O369        O  0.35492786  0.85049160  0.52130417    -0.82000
C370        C  0.43140157  0.91459329  0.59029121     0.98800
C371        C  0.37164148  0.95390101  0.62737448     1.06200
O372        O  0.36100401  0.90943076  0.56304809    -1.11000
O373        O  0.30827765  0.86239734  0.56064204    -0.73400
O374        O  0.33322513  0.86992088  0.60699511    -0.76900
O375        O  0.41844538  0.94383129  0.58178560    -0.77600
C376        C  0.31001970  0.86164150  0.58961081     0.97700
O377        O  0.37322152  0.83208056  0.56833368    -0.75500
O378        O  0.30439136  0.93437793  0.54028105    -0.80700
C379        C  0.37007482  0.94153047  0.99572596     1.00300
C380        C  0.31025590  0.96688418  0.53627799     1.06200
O381        O  0.38862716  0.94812333  0.51895684    -0.76400
C382        C  0.36729637  0.82708679  0.53942851     1.04500
Fe383      Fe  0.12657717  0.87789191  0.65240279     1.65800
Fe384      Fe  0.17115391  0.89292998  0.71818095     1.73200
Fe385      Fe  0.12517457  0.95777799  0.68853947     1.54400
O386        O  0.13683170  0.97038028  0.64705436    -0.80100
O387        O  0.15459781  0.92305944  0.75227138    -0.78400
O388        O  0.12308463  0.92052539  0.62058720    -0.82600
O389        O  0.08354873  0.88474401  0.65867365    -0.77500
O390        O  0.16523480  0.97900987  0.70949191    -0.79200
O391        O  0.14658758  0.85028637  0.72811018    -0.82000
C392        C  0.07020414  0.91446060  0.65904495     0.98800
C393        C  0.13003837  0.95379478  0.62209973     1.06200
O394        O  0.14057672  0.90926934  0.68640752    -1.11000
O395        O  0.19332217  0.86224570  0.68888249    -0.73400
O396        O  0.16843885  0.86980064  0.64250146    -0.76900
O397        O  0.08315000  0.94368518  0.66759967    -0.77600
C398        C  0.19162595  0.86151983  0.65991673     0.97700
O399        O  0.12836171  0.83192513  0.68104768    -0.75500
O400        O  0.19716644  0.93419805  0.70931202    -0.80700
C401        C  0.13138755  0.94130616  0.75372029     1.00300
C402        C  0.19128603  0.96670784  0.71328237     1.06200
O403        O  0.11287409  0.94792753  0.73046348    -0.76400
C404        C  0.13424095  0.82690358  0.70995260     1.04500
Fe405      Fe  0.12653509  0.12671834  0.90247499     1.65800
Fe406      Fe  0.17106974  0.11150508  0.96820786     1.73200
Fe407      Fe  0.12460432  0.04705387  0.93882797     1.54400
O408        O  0.08270170  0.06150849  0.91786635    -0.80100
O409        O  0.19675203  0.06989965  0.95931135    -0.78400
O410        O  0.08352270  0.12040940  0.90887716    -0.82600
O411        O  0.12276591  0.08393381  0.87076686    -0.77500
O412        O  0.11240052  0.05739533  0.98070850    -0.79200
O413        O  0.19333256  0.14190719  0.93883358    -0.82000
C414        C  0.12953344  0.05059883  0.87235882     0.98800
C415        C  0.06997340  0.09085997  0.90931365     1.06200
O416        O  0.14035628  0.09535735  0.93652361    -1.11000
O417        O  0.14679398  0.15442601  0.97811670    -0.73400
O418        O  0.12866948  0.17279804  0.93102299    -0.76900
O419        O  0.13614021  0.03403827  0.89736244    -0.77600
C420        C  0.13459898  0.17787260  0.95991928     0.97700
O421        O  0.16838813  0.13433538  0.89248601    -0.75500
O422        O  0.15441653  0.08165127  0.50236999    -0.80700
C423        C  0.19064778  0.03752608  0.96360719     1.00300
C424        C  0.13107101  0.06371972  0.50389824     1.06200
O425        O  0.16451093  0.02550261  0.95988859    -0.76400
C426        C  0.19159442  0.14258051  0.90986843     1.04500
Fe427      Fe  0.37485076  0.12691976  0.84691190     1.65800
Fe428      Fe  0.33043366  0.11165403  0.78110669     1.73200
Fe429      Fe  0.37686078  0.04722097  0.81063158     1.54400
O430        O  0.41872822  0.06169481  0.83165634    -0.80100
O431        O  0.30472916  0.07005408  0.78994989    -0.78400
O432        O  0.41789438  0.12060431  0.84060894    -0.82600
O433        O  0.37858227  0.08416728  0.87864897    -0.77500
O434        O  0.38914543  0.05750519  0.76877762    -0.79200
O435        O  0.30809208  0.14206029  0.81041295    -0.82000
C436        C  0.37182062  0.05083286  0.87706975     0.98800
C437        C  0.43144553  0.09104578  0.84021868     1.06200
O438        O  0.36109576  0.09553001  0.81286164    -1.11000
O439        O  0.35472181  0.15457763  0.77123535    -0.73400
O440        O  0.37274607  0.17298322  0.81834525    -0.76900
O441        O  0.36524636  0.03425334  0.85207261    -0.77600
C442        C  0.36686242  0.17804461  0.78944373     0.97700
O443        O  0.33296254  0.13452476  0.85680250    -0.75500
O444        O  0.34717246  0.08178172  0.74700912    -0.80700
C445        C  0.31085206  0.03766372  0.78574980     1.00300
C446        C  0.37052363  0.06383123  0.74554730     1.06200
O447        O  0.33699058  0.02564472  0.78952980    -0.76400
C448        C  0.30977441  0.14273599  0.83937400     1.04500
C449        C  0.21720444  0.15159450  0.89593136    -0.16900
C450        C  0.23835037  0.15505538  0.88266505     0.07100
C451        C  0.26295306  0.15509780  0.86649933     0.09000
C452        C  0.28412005  0.15170103  0.85325505    -0.17800
C453        C  0.46204333  0.09035733  0.85236151    -0.16900
C454        C  0.48661057  0.09003382  0.86607843     0.07100
C455        C  0.01478286  0.08996455  0.88353822     0.09000
C456        C  0.03936088  0.09019565  0.89723070    -0.17800
C457        C  0.21526803  0.98853747  0.72579442    -0.16900
C458        C  0.23783928  0.99841138  0.74019521     0.07100
C459        C  0.26460123  0.00575277  0.75839016     0.09000
C460        C  0.28707071  0.01569748  0.77294808    -0.17800
C461        C  0.12861289  0.02951103  0.84503071    -0.16900
C462        C  0.12761440  0.00748663  0.82486653     0.07100
C463        C  0.12706399  0.98040601  0.80234647     0.09000
C464        C  0.12792801  0.95942520  0.78167130    -0.17800
C465        C  0.12769636  0.04545372  0.53178535    -0.16900
C466        C  0.12701832  0.02426967  0.55233551     0.07100
C467        C  0.12783634  0.99696757  0.57467394     0.09000
C468        C  0.12902328  0.97483118  0.59475384    -0.17800
C469        C  0.21444488  0.01561344  0.97647429    -0.16900
C470        C  0.23691689  0.00574826  0.99108379     0.07100
C471        C  0.26367770  0.99850308  0.50932405     0.09000
C472        C  0.28625740  0.98869025  0.52375324    -0.17800
C473        C  0.37348366  0.95967438  0.96777307    -0.16900
C474        C  0.37431050  0.98066508  0.94709816     0.07100
C475        C  0.37372923  0.00774713  0.92457612     0.09000
C476        C  0.37272204  0.02976497  0.90440604    -0.17800
C477        C  0.37396130  0.04555110  0.71768384    -0.16900
C478        C  0.37467844  0.02435681  0.69714822     0.07100
C479        C  0.37388352  0.99704859  0.67481826     0.09000
C480        C  0.37269270  0.97491559  0.65473564    -0.17800
C481        C  0.28439489  0.85254072  0.60354394    -0.16900
C482        C  0.26319268  0.84906981  0.61675144     0.07100
C483        C  0.23850027  0.84903794  0.63282926     0.09000
C484        C  0.21728316  0.85245981  0.64602190    -0.17800
C485        C  0.03957128  0.91545815  0.64692952    -0.16900
C486        C  0.01494705  0.91590799  0.63330285     0.07100
C487        C  0.48667635  0.91595260  0.61597599     0.09000
C488        C  0.46204478  0.91556466  0.60236560    -0.17800
C489        C  0.12352272  0.29310371  0.52584165    -0.16900
C490        C  0.12556122  0.26708094  0.50985647     0.07100
C491        C  0.12654636  0.23783289  0.98941290     0.09000
C492        C  0.12849048  0.21176933  0.97344834    -0.17800
C493        C  0.37295316  0.21195166  0.77592071    -0.16900
C494        C  0.37487806  0.23802378  0.75995988     0.07100
C495        C  0.37583787  0.26727689  0.73951472     0.09000
C496        C  0.37785290  0.29329576  0.72351790    -0.17800
C497        C  0.28938421  0.41557535  0.64700195    -0.16900
C498        C  0.26475884  0.41596354  0.63337630     0.07100
C499        C  0.23649737  0.41591859  0.61603006     0.09000
C500        C  0.21187885  0.41546825  0.60238954    -0.17800
C501        C  0.46705551  0.35260693  0.64582109    -0.16900
C502        C  0.48825950  0.34914405  0.63261392     0.07100
C503        C  0.01295253  0.34911390  0.61653628     0.09000
C504        C  0.03416861  0.35253013  0.60334123    -0.17800
C505        C  0.37846497  0.71197410  0.97339273    -0.16900
C506        C  0.37654757  0.73804983  0.98935103     0.07100
C507        C  0.37559792  0.76729929  0.50980093     0.09000
C508        C  0.37358948  0.79331139  0.52580698    -0.17800
C509        C  0.37867561  0.52968698  0.84500987    -0.16900
C510        C  0.37767333  0.50766357  0.82484530     0.07100
C511        C  0.37709794  0.48058494  0.80232157     0.09000
C512        C  0.37792911  0.45960510  0.78164013    -0.17800
C513        C  0.37745575  0.54562854  0.53172673    -0.16900
C514        C  0.37674221  0.52444494  0.55227110     0.07100
C515        C  0.37753950  0.49713983  0.57460489     0.09000
C516        C  0.37873006  0.47500094  0.59468354    -0.17800
C517        C  0.46433015  0.51568454  0.97643745    -0.16900
C518        C  0.48681317  0.50574895  0.99097635     0.07100
C519        C  0.01359459  0.49842496  0.50914195     0.09000
C520        C  0.03618020  0.48855946  0.52352100    -0.17800
C521        C  0.12791398  0.79312142  0.72353807    -0.16900
C522        C  0.12586860  0.76710581  0.73952863     0.07100
C523        C  0.12487432  0.73785994  0.75997192     0.09000
C524        C  0.12292337  0.71179279  0.77592968    -0.17800
C525        C  0.12350657  0.45935581  0.96761154    -0.16900
C526        C  0.12436672  0.48032511  0.94692718     0.07100
C527        C  0.12381346  0.50740212  0.92440335     0.09000
C528        C  0.12281488  0.52943269  0.90424341    -0.17800
C529        C  0.12242925  0.47491888  0.65452589    -0.16900
C530        C  0.12360983  0.49706099  0.67460061     0.07100
C531        C  0.12442074  0.52435980  0.69694082     0.09000
C532        C  0.12373844  0.54553399  0.71749746    -0.17800
C533        C  0.21206128  0.59019665  0.85209741    -0.16900
C534        C  0.23663361  0.58996724  0.86580398     0.07100
C535        C  0.26479712  0.59003867  0.88328186     0.09000
C536        C  0.28935895  0.59036284  0.89701213    -0.17800
C537        C  0.46728126  0.65164233  0.89607730    -0.16900
C538        C  0.48844714  0.65503590  0.88283105     0.07100
C539        C  0.01305039  0.65499666  0.86666598     0.09000
C540        C  0.03419833  0.65154349  0.85340042    -0.17800
C541        C  0.46514760  0.48870822  0.72563162    -0.16900
C542        C  0.48773851  0.49851946  0.74003452     0.07100
C543        C  0.01451669  0.50575598  0.75824140     0.09000
C544        C  0.03699939  0.51561693  0.77282778    -0.17800
Fe545      Fe  0.62487504  0.62669047  0.34685719     1.65800
Fe546      Fe  0.58035229  0.61152279  0.28111086     1.73200
Fe547      Fe  0.62683667  0.54706138  0.31045488     1.54400
O548        O  0.66873481  0.56151326  0.33142435    -0.80100
O549        O  0.55468130  0.56990353  0.28998432    -0.78400
O550        O  0.66789149  0.62040242  0.34046167    -0.82600
O551        O  0.62864859  0.58387967  0.37854000    -0.77500
O552        O  0.63903544  0.55744660  0.26857894    -0.79200
O553        O  0.55807921  0.64189607  0.31049770    -0.82000
C554        C  0.62189733  0.55054203  0.37692708     0.98800
C555        C  0.68145121  0.59086022  0.34000429     1.06200
O556        O  0.61106809  0.59535598  0.31278848    -1.11000
O557        O  0.60462047  0.65445635  0.27122891    -0.73400
O558        O  0.62273564  0.67279281  0.31833472    -0.76900
O559        O  0.61530793  0.53399907  0.35191341    -0.77600
C560        C  0.61681110  0.67788856  0.28944056     0.97700
O561        O  0.58301753  0.63428640  0.35684349    -0.75500
O562        O  0.59701085  0.58170180  0.24693219    -0.80700
C563        C  0.56079444  0.53753315  0.28568145     1.00300
C564        C  0.62036137  0.56378023  0.24539322     1.06200
O565        O  0.58693470  0.52551501  0.28938770    -0.76400
C566        C  0.55981214  0.64254361  0.33946269     1.04500
Fe567      Fe  0.87655286  0.62689043  0.40244519     1.65800
Fe568      Fe  0.92097571  0.61165751  0.46825376     1.73200
Fe569      Fe  0.87453506  0.54722411  0.43877776     1.54400
O570        O  0.83266762  0.56170012  0.41774961    -0.80100
O571        O  0.94667098  0.57003889  0.45942638    -0.78400
O572        O  0.83350901  0.62059953  0.40875283    -0.82600
O573        O  0.87281903  0.58411255  0.37073460    -0.77500
O574        O  0.86226027  0.55755455  0.48062904    -0.79200
O575        O  0.94331565  0.64203199  0.43892777    -0.82000
C576        C  0.87957299  0.55077477  0.37233438     0.98800
C577        C  0.81995449  0.59104852  0.40916318     1.06200
O578        O  0.89030701  0.59552257  0.43651328    -1.11000
O579        O  0.89669439  0.65459884  0.47810499    -0.73400
O580        O  0.87866196  0.67297515  0.43098675    -0.76900
O581        O  0.88613874  0.53421073  0.39734153    -0.77600
C582        C  0.88455136  0.67805605  0.45988527     0.97700
O583        O  0.91844009  0.63447190  0.39254522    -0.75500
O584        O  0.90424216  0.58182060  0.00237331    -0.80700
C585        C  0.94054582  0.53765426  0.46364374     1.00300
C586        C  0.88088850  0.56388665  0.00385175     1.06200
O587        O  0.91440587  0.52564540  0.45988345    -0.76400
C588        C  0.94162983  0.64268915  0.40996630     1.04500
Fe589      Fe  0.87638308  0.37805967  0.15235356     1.65800
Fe590      Fe  0.92104885  0.39311824  0.21806164     1.73200
Fe591      Fe  0.87501490  0.45794759  0.18849638     1.54400
O592        O  0.88660035  0.47055579  0.14698254    -0.80100
O593        O  0.90455181  0.42325267  0.25218557    -0.78400
O594        O  0.87283155  0.42069378  0.12053382    -0.82600
O595        O  0.83337666  0.38489501  0.15870516    -0.77500
O596        O  0.91509761  0.47919190  0.20938947    -0.79200
O597        O  0.89651354  0.35047137  0.22805017    -0.82000
C598        C  0.82002459  0.41460427  0.15908772     0.98800
C599        C  0.87977824  0.45396643  0.12203423     1.06200
O600        O  0.89042286  0.40944425  0.18633726    -1.11000
O601        O  0.94316543  0.36242579  0.18872470    -0.73400
O602        O  0.91822045  0.36997795  0.14237388    -0.76900
O603        O  0.83296886  0.44383817  0.16761938    -0.77600
C604        C  0.94142675  0.36169188  0.15975598     0.97700
O605        O  0.87822433  0.33209564  0.18101020    -0.75500
O606        O  0.94702579  0.43439094  0.20912124    -0.80700
C607        C  0.88134187  0.44148326  0.25367830     1.00300
C608        C  0.94115130  0.46689490  0.21312646     1.06200
O609        O  0.86278721  0.44808763  0.23045108    -0.76400
C610        C  0.88414785  0.32708017  0.20991313     1.04500
Fe611      Fe  0.62487318  0.37793091  0.09693360     1.65800
Fe612      Fe  0.58028978  0.39293385  0.03115228     1.73200
Fe613      Fe  0.62628024  0.45778633  0.06074565     1.54400
O614        O  0.61463422  0.47043341  0.10222671    -0.80100
O615        O  0.59684052  0.42302765  0.49703984    -0.78400
O616        O  0.62836630  0.42059015  0.12872361    -0.82600
O617        O  0.66790152  0.38476180  0.09065749    -0.77500
O618        O  0.58621858  0.47901940  0.03979113    -0.79200
O619        O  0.60484952  0.35027119  0.02124282    -0.82000
C620        C  0.68124828  0.41447188  0.09026605     0.98800
C621        C  0.62141932  0.45386305  0.12719128     1.06200
O622        O  0.61087305  0.40928636  0.06291128    -1.11000
O623        O  0.55812304  0.36228234  0.06047136    -0.73400
O624        O  0.58301267  0.36986097  0.10684492    -0.76900
O625        O  0.66830546  0.44369338  0.08168760    -0.77600
C626        C  0.55982326  0.36157555  0.08943763     0.97700
O627        O  0.62308627  0.33194158  0.06831328    -0.75500
O628        O  0.55428507  0.43422024  0.04000419    -0.80700
C629        C  0.62005201  0.44126065  0.49557452     1.00300
C630        C  0.56016646  0.46672574  0.03602019     1.06200
O631        O  0.63857072  0.44789173  0.01882375    -0.76400
C632        C  0.61719998  0.32689863  0.03941146     1.04500
Fe633      Fe  0.87505783  0.87802246  0.09701331     1.65800
Fe634      Fe  0.83038131  0.89312155  0.03131754     1.73200
Fe635      Fe  0.87639440  0.95794202  0.06091549     1.54400
O636        O  0.86480150  0.97050579  0.10243542    -0.80100
O637        O  0.84687002  0.92329034  0.49720900    -0.78400
O638        O  0.87860514  0.92063168  0.12885582    -0.82600
O639        O  0.91805985  0.88487734  0.09065497    -0.77500
O640        O  0.83630596  0.97918764  0.04002698    -0.79200
O641        O  0.85492786  0.85049160  0.02130414    -0.82000
C642        C  0.93140157  0.91459323  0.09029119     0.98800
C643        C  0.87164151  0.95390100  0.12737447     1.06200
O644        O  0.86100401  0.90943073  0.06304807    -1.11000
O645        O  0.80827765  0.86239731  0.06064200    -0.73400
O646        O  0.83322511  0.86992085  0.10699507    -0.76900
O647        O  0.91844541  0.94383122  0.08178554    -0.77600
C648        C  0.81001967  0.86164145  0.08961078     0.97700
O649        O  0.87322151  0.83208054  0.06833365    -0.75500
O650        O  0.80439136  0.93437792  0.04028105    -0.80700
C651        C  0.87007488  0.94153050  0.49572596     1.00300
C652        C  0.81025592  0.96688417  0.03627800     1.06200
O653        O  0.88862717  0.94812326  0.01895681    -0.76400
C654        C  0.86729637  0.82708680  0.03942849     1.04500
Fe655      Fe  0.62657720  0.87789191  0.15240281     1.65800
Fe656      Fe  0.67115394  0.89293001  0.21818097     1.73200
Fe657      Fe  0.62517458  0.95777799  0.18853947     1.54400
O658        O  0.63683171  0.97038027  0.14705437    -0.80100
O659        O  0.65459784  0.92305946  0.25227138    -0.78400
O660        O  0.62308468  0.92052536  0.12058722    -0.82600
O661        O  0.58354875  0.88474402  0.15867364    -0.77500
O662        O  0.66523481  0.97900989  0.20949191    -0.79200
O663        O  0.64658763  0.85028639  0.22811020    -0.82000
C664        C  0.57020413  0.91446060  0.15904492     0.98800
C665        C  0.63003840  0.95379480  0.12209972     1.06200
O666        O  0.64057675  0.90926935  0.18640754    -1.11000
O667        O  0.69332222  0.86224573  0.18888253    -0.73400
O668        O  0.66843888  0.86980061  0.14250149    -0.76900
O669        O  0.58315002  0.94368519  0.16759967    -0.77600
C670        C  0.69162600  0.86151981  0.15991674     0.97700
O671        O  0.62836172  0.83192515  0.18104772    -0.75500
O672        O  0.69716647  0.93419809  0.20931203    -0.80700
C673        C  0.63138756  0.94130618  0.25372031     1.00300
C674        C  0.69128604  0.96670787  0.21328237     1.06200
O675        O  0.61287410  0.94792753  0.23046348    -0.76400
C676        C  0.63424097  0.82690361  0.20995264     1.04500
Fe677      Fe  0.62653509  0.12671836  0.40247498     1.65800
Fe678      Fe  0.67106970  0.11150511  0.46820789     1.73200
Fe679      Fe  0.62460429  0.04705389  0.43882797     1.54400
O680        O  0.58270167  0.06150853  0.41786632    -0.80100
O681        O  0.69675200  0.06989967  0.45931143    -0.78400
O682        O  0.58352268  0.12040943  0.40887712    -0.82600
O683        O  0.62276592  0.08393384  0.37076686    -0.77500
O684        O  0.61240046  0.05739536  0.48070850    -0.79200
O685        O  0.69333255  0.14190719  0.43883363    -0.82000
C686        C  0.62953343  0.05059883  0.37235881     0.98800
C687        C  0.56997341  0.09086000  0.40931363     1.06200
O688        O  0.64035626  0.09535738  0.43652361    -1.11000
O689        O  0.64679393  0.15442604  0.47811669    -0.73400
O690        O  0.62866946  0.17279807  0.43102297    -0.76900
O691        O  0.63614019  0.03403829  0.39736246    -0.77600
C692        C  0.63459894  0.17787265  0.45991928     0.97700
O693        O  0.66838813  0.13433539  0.39248603    -0.75500
O694        O  0.65441653  0.08165126  0.00236996    -0.80700
C695        C  0.69064774  0.03752610  0.46360725     1.00300
C696        C  0.63107101  0.06371968  0.00389826     1.06200
O697        O  0.66451089  0.02550263  0.45988861    -0.76400
C698        C  0.69159446  0.14258053  0.40986844     1.04500
Fe699      Fe  0.87485078  0.12691977  0.34691190     1.65800
Fe700      Fe  0.83043369  0.11165405  0.28110669     1.73200
Fe701      Fe  0.87686079  0.04722098  0.31063158     1.54400
O702        O  0.91872823  0.06169481  0.33165634    -0.80100
O703        O  0.80472917  0.07005412  0.28994988    -0.78400
O704        O  0.91789439  0.12060432  0.34060892    -0.82600
O705        O  0.87858231  0.08416729  0.37864897    -0.77500
O706        O  0.88914545  0.05750518  0.26877762    -0.79200
O707        O  0.80809212  0.14206031  0.31041295    -0.82000
C708        C  0.87182064  0.05083287  0.37706975     0.98800
C709        C  0.93144557  0.09104579  0.34021868     1.06200
O710        O  0.86109578  0.09553003  0.31286163    -1.11000
O711        O  0.85472185  0.15457764  0.27123535    -0.73400
O712        O  0.87274608  0.17298324  0.31834526    -0.76900
O713        O  0.86524636  0.03425336  0.35207261    -0.77600
C714        C  0.86686245  0.17804462  0.28944375     0.97700
O715        O  0.83296258  0.13452474  0.35680251    -0.75500
O716        O  0.84717249  0.08178173  0.24700912    -0.80700
C717        C  0.81085208  0.03766376  0.28574979     1.00300
C718        C  0.87052365  0.06383123  0.24554730     1.06200
O719        O  0.83699059  0.02564475  0.28952980    -0.76400
C720        C  0.80977440  0.14273600  0.33937403     1.04500
C721        C  0.71720441  0.15159447  0.39593144    -0.16900
C722        C  0.73835045  0.15505536  0.38266505     0.07100
C723        C  0.76295302  0.15509777  0.36649939     0.09000
C724        C  0.78412011  0.15170100  0.35325503    -0.17800
C725        C  0.96204331  0.09035734  0.35236148    -0.16900
C726        C  0.98661063  0.09003385  0.36607843     0.07100
C727        C  0.51478291  0.08996460  0.38353821     0.09000
C728        C  0.53936082  0.09019569  0.39723063    -0.17800
C729        C  0.71526805  0.98853752  0.22579441    -0.16900
C730        C  0.73783928  0.99841144  0.24019518     0.07100
C731        C  0.76460125  0.00575282  0.25839014     0.09000
C732        C  0.78707071  0.01569752  0.27294806    -0.17800
C733        C  0.62861287  0.02951106  0.34503074    -0.16900
C734        C  0.62761437  0.00748662  0.32486651     0.07100
C735        C  0.62706398  0.98040604  0.30234650     0.09000
C736        C  0.62792801  0.95942519  0.28167129    -0.17800
C737        C  0.62769637  0.04545374  0.03178531    -0.16900
C738        C  0.62701833  0.02426960  0.05233555     0.07100
C739        C  0.62783635  0.99696761  0.07467390     0.09000
C740        C  0.62902331  0.97483113  0.09475389    -0.17800
C741        C  0.71444484  0.01561345  0.47647435    -0.16900
C742        C  0.73691686  0.00574826  0.49108381     0.07100
C743        C  0.76367773  0.99850309  0.00932407     0.09000
C744        C  0.78625741  0.98869026  0.02375325    -0.17800
C745        C  0.87348372  0.95967439  0.46777307    -0.16900
C746        C  0.87431055  0.98066510  0.44709815     0.07100
C747        C  0.87372926  0.00774714  0.42457612     0.09000
C748        C  0.87272206  0.02976499  0.40440603    -0.17800
C749        C  0.87396133  0.04555109  0.21768384    -0.16900
C750        C  0.87467847  0.02435679  0.19714822     0.07100
C751        C  0.87388355  0.99704858  0.17481826     0.09000
C752        C  0.87269272  0.97491558  0.15473563    -0.17800
C753        C  0.78439490  0.85254066  0.10354388    -0.16900
C754        C  0.76319264  0.84906973  0.11675143     0.07100
C755        C  0.73850032  0.84903787  0.13282924     0.09000
C756        C  0.71728317  0.85245977  0.14602194    -0.17800
C757        C  0.53957132  0.91545815  0.14692949    -0.16900
C758        C  0.51494702  0.91590797  0.13330279     0.07100
C759        C  0.98667634  0.91595257  0.11597595     0.09000
C760        C  0.96204481  0.91556459  0.10236558    -0.17800
C761        C  0.62352266  0.29310370  0.02584162    -0.16900
C762        C  0.62556117  0.26708096  0.00985648     0.07100
C763        C  0.62654631  0.23783293  0.48941290     0.09000
C764        C  0.62849043  0.21176933  0.47344831    -0.17800
C765        C  0.87295318  0.21195169  0.27592072    -0.16900
C766        C  0.87487807  0.23802379  0.25995988     0.07100
C767        C  0.87583788  0.26727690  0.23951471     0.09000
C768        C  0.87785290  0.29329575  0.22351787    -0.17800
C769        C  0.78938423  0.41557533  0.14700191    -0.16900
C770        C  0.76475882  0.41596352  0.13337625     0.07100
C771        C  0.73649739  0.41591858  0.11603004     0.09000
C772        C  0.71187883  0.41546824  0.10238951    -0.17800
C773        C  0.96705557  0.35260695  0.14582107    -0.16900
C774        C  0.98825949  0.34914409  0.13261395     0.07100
C775        C  0.51295251  0.34911389  0.11653629     0.09000
C776        C  0.53416859  0.35253013  0.10334126    -0.17800
C777        C  0.87846492  0.71197407  0.47339272    -0.16900
C778        C  0.87654753  0.73804984  0.48935107     0.07100
C779        C  0.87559793  0.76729931  0.00980092     0.09000
C780        C  0.87358949  0.79331138  0.02580694    -0.17800
C781        C  0.87867557  0.52968702  0.34500984    -0.16900
C782        C  0.87767328  0.50766357  0.32484524     0.07100
C783        C  0.87709790  0.48058496  0.30232156     0.09000
C784        C  0.87792909  0.45960509  0.28164010    -0.17800
C785        C  0.87745572  0.54562859  0.03172674    -0.16900
C786        C  0.87674217  0.52444498  0.05227112     0.07100
C787        C  0.87753946  0.49713987  0.07460489     0.09000
C788        C  0.87873003  0.47500096  0.09468355    -0.17800
C789        C  0.96433016  0.51568455  0.47643744    -0.16900
C790        C  0.98681315  0.50574896  0.49097632     0.07100
C791        C  0.51359457  0.49842498  0.00914198     0.09000
C792        C  0.53618021  0.48855949  0.02352105    -0.17800
C793        C  0.62791397  0.79312148  0.22353812    -0.16900
C794        C  0.62586857  0.76710586  0.23952868     0.07100
C795        C  0.62487427  0.73786000  0.25997194     0.09000
C796        C  0.62292332  0.71179282  0.27592971    -0.17800
C797        C  0.62350655  0.45935585  0.46761150    -0.16900
C798        C  0.62436670  0.48032510  0.44692721     0.07100
C799        C  0.62381343  0.50740218  0.42440332     0.09000
C800        C  0.62281485  0.52943268  0.40424344    -0.17800
C801        C  0.62242926  0.47491889  0.15452587    -0.16900
C802        C  0.62360983  0.49706105  0.17460063     0.07100
C803        C  0.62442074  0.52435982  0.19694080     0.09000
C804        C  0.62373844  0.54553404  0.21749748    -0.17800
C805        C  0.71206127  0.59019668  0.35209743    -0.16900
C806        C  0.73663354  0.58996726  0.36580395     0.07100
C807        C  0.76479713  0.59003868  0.38328186     0.09000
C808        C  0.78935889  0.59036284  0.39701209    -0.17800
C809        C  0.96728123  0.65164231  0.39607731    -0.16900
C810        C  0.98844718  0.65503588  0.38283103     0.07100
C811        C  0.51305040  0.65499670  0.36666596     0.09000
C812        C  0.53419826  0.65154353  0.35340043    -0.17800
C813        C  0.96514764  0.48870821  0.22563164    -0.16900
C814        C  0.98773849  0.49851943  0.24003449     0.07100
C815        C  0.51451663  0.50575595  0.25824135     0.09000
C816        C  0.53699941  0.51561696  0.27282781    -0.17800
Fe817      Fe  0.62487506  0.62669045  0.84685719     1.65800
Fe818      Fe  0.58035230  0.61152277  0.78111088     1.73200
Fe819      Fe  0.62683667  0.54706136  0.81045489     1.54400
O820        O  0.66873482  0.56151324  0.83142434    -0.80100
O821        O  0.55468131  0.56990352  0.78998436    -0.78400
O822        O  0.66789150  0.62040240  0.84046166    -0.82600
O823        O  0.62864861  0.58387967  0.87854000    -0.77500
O824        O  0.63903544  0.55744658  0.76857894    -0.79200
O825        O  0.55807922  0.64189606  0.81049770    -0.82000
C826        C  0.62189735  0.55054199  0.87692710     0.98800
C827        C  0.68145121  0.59086020  0.84000428     1.06200
O828        O  0.61106810  0.59535596  0.81278849    -1.11000
O829        O  0.60462047  0.65445632  0.77122890    -0.73400
O830        O  0.62273565  0.67279280  0.81833470    -0.76900
O831        O  0.61530795  0.53399905  0.85191341    -0.77600
C832        C  0.61681110  0.67788853  0.78944054     0.97700
O833        O  0.58301754  0.63428638  0.85684349    -0.75500
O834        O  0.59701083  0.58170176  0.74693220    -0.80700
C835        C  0.56079445  0.53753313  0.78568148     1.00300
C836        C  0.62036136  0.56378020  0.74539323     1.06200
O837        O  0.58693469  0.52551499  0.78938772    -0.76400
C838        C  0.55981217  0.64254360  0.83946270     1.04500
Fe839      Fe  0.87655285  0.62689041  0.90244520     1.65800
Fe840      Fe  0.92097570  0.61165750  0.96825377     1.73200
Fe841      Fe  0.87453504  0.54722410  0.93877779     1.54400
O842        O  0.83266761  0.56170013  0.91774962    -0.80100
O843        O  0.94667096  0.57003886  0.95942639    -0.78400
O844        O  0.83350901  0.62059953  0.90875285    -0.82600
O845        O  0.87281901  0.58411251  0.87073462    -0.77500
O846        O  0.86226025  0.55755458  0.98062906    -0.79200
O847        O  0.94331565  0.64203197  0.93892778    -0.82000
C848        C  0.87957299  0.55077475  0.87233442     0.98800
C849        C  0.81995450  0.59104852  0.90916320     1.06200
O850        O  0.89030701  0.59552256  0.93651330    -1.11000
O851        O  0.89669439  0.65459884  0.97810499    -0.73400
O852        O  0.87866198  0.67297514  0.93098675    -0.76900
O853        O  0.88613874  0.53421071  0.89734157    -0.77600
C854        C  0.88455138  0.67805603  0.95988526     0.97700
O855        O  0.91844008  0.63447185  0.89254523    -0.75500
O856        O  0.90424217  0.58182061  0.50237330    -0.80700
C857        C  0.94054579  0.53765425  0.96364375     1.00300
C858        C  0.88088852  0.56388663  0.50385174     1.06200
O859        O  0.91440585  0.52564539  0.95988348    -0.76400
C860        C  0.94162983  0.64268912  0.90996629     1.04500
Fe861      Fe  0.87638308  0.37805967  0.65235358     1.65800
Fe862      Fe  0.92104886  0.39311825  0.71806166     1.73200
Fe863      Fe  0.87501489  0.45794759  0.68849639     1.54400
O864        O  0.88660034  0.47055580  0.64698255    -0.80100
O865        O  0.90455181  0.42325267  0.75218559    -0.78400
O866        O  0.87283157  0.42069377  0.62053383    -0.82600
O867        O  0.83337665  0.38489501  0.65870515    -0.77500
O868        O  0.91509761  0.47919191  0.70938948    -0.79200
O869        O  0.89651355  0.35047137  0.72805018    -0.82000
C870        C  0.82002460  0.41460426  0.65908774     0.98800
C871        C  0.87977824  0.45396643  0.62203424     1.06200
O872        O  0.89042286  0.40944425  0.68633728    -1.11000
O873        O  0.94316545  0.36242580  0.68872473    -0.73400
O874        O  0.91822045  0.36997794  0.64237390    -0.76900
O875        O  0.83296885  0.44383816  0.66761940    -0.77600
C876        C  0.94142678  0.36169188  0.65975599     0.97700
O877        O  0.87822433  0.33209564  0.68101022    -0.75500
O878        O  0.94702579  0.43439095  0.70912127    -0.80700
C879        C  0.88134187  0.44148325  0.75367831     1.00300
C880        C  0.94115129  0.46689492  0.71312648     1.06200
O881        O  0.86278721  0.44808764  0.73045111    -0.76400
C882        C  0.88414785  0.32708017  0.70991315     1.04500
Fe883      Fe  0.62487317  0.37793090  0.59693359     1.65800
Fe884      Fe  0.58028979  0.39293383  0.53115226     1.73200
Fe885      Fe  0.62628022  0.45778633  0.56074566     1.54400
O886        O  0.61463419  0.47043339  0.60222671    -0.80100
O887        O  0.59684050  0.42302767  0.99703985    -0.78400
O888        O  0.62836627  0.42059013  0.62872361    -0.82600
O889        O  0.66790151  0.38476180  0.59065751    -0.77500
O890        O  0.58621856  0.47901939  0.53979113    -0.79200
O891        O  0.60484954  0.35027118  0.52124282    -0.82000
C892        C  0.68124826  0.41447188  0.59026606     0.98800
C893        C  0.62141929  0.45386301  0.62719127     1.06200
O894        O  0.61087305  0.40928635  0.56291127    -1.11000
O895        O  0.55812303  0.36228233  0.56047133    -0.73400
O896        O  0.58301265  0.36986095  0.60684489    -0.76900
O897        O  0.66830545  0.44369338  0.58168762    -0.77600
C898        C  0.55982324  0.36157553  0.58943761     0.97700
O899        O  0.62308627  0.33194158  0.56831328    -0.75500
O900        O  0.55428506  0.43422022  0.54000413    -0.80700
C901        C  0.62005200  0.44126066  0.99557450     1.00300
C902        C  0.56016645  0.46672572  0.53602016     1.06200
O903        O  0.63857072  0.44789175  0.51882375    -0.76400
C904        C  0.61720000  0.32689860  0.53941145     1.04500
Fe905      Fe  0.87505784  0.87802250  0.59701332     1.65800
Fe906      Fe  0.83038132  0.89312157  0.53131756     1.73200
Fe907      Fe  0.87639438  0.95794206  0.56091550     1.54400
O908        O  0.86480147  0.97050581  0.60243543    -0.80100
O909        O  0.84687002  0.92329034  0.99720899    -0.78400
O910        O  0.87860517  0.92063172  0.62885582    -0.82600
O911        O  0.91805985  0.88487738  0.59065494    -0.77500
O912        O  0.83630594  0.97918766  0.54002698    -0.79200
O913        O  0.85492786  0.85049161  0.52130416    -0.82000
C914        C  0.93140156  0.91459328  0.59029119     0.98800
C915        C  0.87164151  0.95390103  0.62737447     1.06200
O916        O  0.86100401  0.90943076  0.56304808    -1.11000
O917        O  0.80827766  0.86239734  0.56064203    -0.73400
O918        O  0.83322513  0.86992089  0.60699510    -0.76900
O919        O  0.91844540  0.94383127  0.58178557    -0.77600
C920        C  0.81001969  0.86164149  0.58961081     0.97700
O921        O  0.87322151  0.83208056  0.56833368    -0.75500
O922        O  0.80439136  0.93437794  0.54028106    -0.80700
C923        C  0.87007488  0.94153047  0.99572596     1.00300
C924        C  0.81025592  0.96688418  0.53627801     1.06200
O925        O  0.88862716  0.94812331  0.51895682    -0.76400
C926        C  0.86729636  0.82708679  0.53942850     1.04500
Fe927      Fe  0.62657721  0.87789190  0.65240278     1.65800
Fe928      Fe  0.67115394  0.89292999  0.71818096     1.73200
Fe929      Fe  0.62517457  0.95777798  0.68853947     1.54400
O930        O  0.63683170  0.97038028  0.64705436    -0.80100
O931        O  0.65459783  0.92305944  0.75227138    -0.78400
O932        O  0.62308469  0.92052538  0.62058719    -0.82600
O933        O  0.58354876  0.88474400  0.65867361    -0.77500
O934        O  0.66523481  0.97900987  0.70949191    -0.79200
O935        O  0.64658762  0.85028637  0.72811018    -0.82000
C936        C  0.57020414  0.91446058  0.65904492     0.98800
C937        C  0.63003839  0.95379478  0.62209973     1.06200
O938        O  0.64057675  0.90926934  0.68640752    -1.11000
O939        O  0.69332221  0.86224571  0.68888252    -0.73400
O940        O  0.66843889  0.86980063  0.64250148    -0.76900
O941        O  0.58315002  0.94368516  0.66759967    -0.77600
C942        C  0.69162601  0.86151982  0.65991674     0.97700
O943        O  0.62836173  0.83192513  0.68104769    -0.75500
O944        O  0.69716646  0.93419807  0.70931203    -0.80700
C945        C  0.63138756  0.94130614  0.75372029     1.00300
C946        C  0.69128603  0.96670785  0.71328237     1.06200
O947        O  0.61287410  0.94792751  0.73046348    -0.76400
C948        C  0.63424097  0.82690359  0.70995260     1.04500
Fe949      Fe  0.62653507  0.12671833  0.90247498     1.65800
Fe950      Fe  0.67106971  0.11150508  0.96820786     1.73200
Fe951      Fe  0.62460429  0.04705386  0.93882797     1.54400
O952        O  0.58270167  0.06150848  0.91786633    -0.80100
O953        O  0.69675201  0.06989965  0.95931137    -0.78400
O954        O  0.58352267  0.12040939  0.90887715    -0.82600
O955        O  0.62276589  0.08393380  0.87076686    -0.77500
O956        O  0.61240048  0.05739533  0.98070850    -0.79200
O957        O  0.69333254  0.14190717  0.93883359    -0.82000
C958        C  0.62953341  0.05059882  0.87235882     0.98800
C959        C  0.56997339  0.09085996  0.90931365     1.06200
O960        O  0.64035626  0.09535735  0.93652360    -1.11000
O961        O  0.64679395  0.15442601  0.97811669    -0.73400
O962        O  0.62866945  0.17279804  0.93102298    -0.76900
O963        O  0.63614019  0.03403826  0.89736245    -0.77600
C964        C  0.63459895  0.17787260  0.95991927     0.97700
O965        O  0.66838809  0.13433537  0.89248601    -0.75500
O966        O  0.65441649  0.08165129  0.50236999    -0.80700
C967        C  0.69064777  0.03752608  0.96360722     1.00300
C968        C  0.63107098  0.06371972  0.50389824     1.06200
O969        O  0.66451090  0.02550261  0.95988860    -0.76400
C970        C  0.69159444  0.14258051  0.90986840     1.04500
Fe971      Fe  0.87485079  0.12691976  0.84691190     1.65800
Fe972      Fe  0.83043369  0.11165404  0.78110670     1.73200
Fe973      Fe  0.87686078  0.04722096  0.81063160     1.54400
O974        O  0.91872823  0.06169478  0.83165637    -0.80100
O975        O  0.80472917  0.07005411  0.78994988    -0.78400
O976        O  0.91789440  0.12060431  0.84060891    -0.82600
O977        O  0.87858233  0.08416729  0.87864897    -0.77500
O978        O  0.88914545  0.05750515  0.76877764    -0.79200
O979        O  0.80809213  0.14206030  0.81041295    -0.82000
C980        C  0.87182065  0.05083287  0.87706976     0.98800
C981        C  0.93144557  0.09104577  0.84021869     1.06200
O982        O  0.86109579  0.09553001  0.81286164    -1.11000
O983        O  0.85472185  0.15457762  0.77123535    -0.73400
O984        O  0.87274609  0.17298323  0.81834526    -0.76900
O985        O  0.86524634  0.03425336  0.85207263    -0.77600
C986        C  0.86686244  0.17804461  0.78944374     0.97700
O987        O  0.83296259  0.13452474  0.85680251    -0.75500
O988        O  0.84717250  0.08178172  0.74700913    -0.80700
C989        C  0.81085207  0.03766375  0.78574980     1.00300
C990        C  0.87052366  0.06383121  0.74554732     1.06200
O991        O  0.83699058  0.02564473  0.78952981    -0.76400
C992        C  0.80977441  0.14273599  0.83937404     1.04500
C993        C  0.71720438  0.15159445  0.89593139    -0.16900
C994        C  0.73835043  0.15505533  0.88266501     0.07100
C995        C  0.76295301  0.15509775  0.86649938     0.09000
C996        C  0.78412012  0.15170098  0.85325504    -0.17800
C997        C  0.96204331  0.09035731  0.85236151    -0.16900
C998        C  0.98661062  0.09003381  0.86607847     0.07100
C999        C  0.51478288  0.08996456  0.88353822     0.09000
C1000       C  0.53936083  0.09019564  0.89723067    -0.17800
C1001       C  0.71526804  0.98853750  0.72579442    -0.16900
C1002       C  0.73783926  0.99841141  0.74019521     0.07100
C1003       C  0.76460124  0.00575281  0.75839017     0.09000
C1004       C  0.78707070  0.01569751  0.77294808    -0.17800
C1005       C  0.62861285  0.02951101  0.84503072    -0.16900
C1006       C  0.62761437  0.00748661  0.82486653     0.07100
C1007       C  0.62706397  0.98040599  0.80234647     0.09000
C1008       C  0.62792801  0.95942518  0.78167130    -0.17800
C1009       C  0.62769632  0.04545373  0.53178535    -0.16900
C1010       C  0.62701830  0.02426968  0.55233551     0.07100
C1011       C  0.62783634  0.99696758  0.57467394     0.09000
C1012       C  0.62902330  0.97483119  0.59475384    -0.17800
C1013       C  0.71444485  0.01561345  0.97647432    -0.16900
C1014       C  0.73691690  0.00574826  0.99108381     0.07100
C1015       C  0.76367773  0.99850308  0.50932408     0.09000
C1016       C  0.78625738  0.98869027  0.52375324    -0.17800
C1017       C  0.87348373  0.95967438  0.96777306    -0.16900
C1018       C  0.87431057  0.98066509  0.94709816     0.07100
C1019       C  0.87372929  0.00774715  0.92457613     0.09000
C1020       C  0.87272209  0.02976499  0.90440605    -0.17800
C1021       C  0.87396134  0.04555109  0.71768385    -0.16900
C1022       C  0.87467848  0.02435680  0.69714823     0.07100
C1023       C  0.87388356  0.99704859  0.67481826     0.09000
C1024       C  0.87269273  0.97491561  0.65473563    -0.17800
C1025       C  0.78439493  0.85254071  0.60354392    -0.16900
C1026       C  0.76319267  0.84906978  0.61675146     0.07100
C1027       C  0.73850034  0.84903790  0.63282926     0.09000
C1028       C  0.71728318  0.85245980  0.64602194    -0.17800
C1029       C  0.53957132  0.91545813  0.64692951    -0.16900
C1030       C  0.51494703  0.91590798  0.63330282     0.07100
C1031       C  0.98667632  0.91595260  0.61597596     0.09000
C1032       C  0.96204481  0.91556464  0.60236559    -0.17800
C1033       C  0.62352268  0.29310372  0.52584164    -0.16900
C1034       C  0.62556118  0.26708094  0.50985646     0.07100
C1035       C  0.62654631  0.23783289  0.98941289     0.09000
C1036       C  0.62849043  0.21176933  0.97344833    -0.17800
C1037       C  0.87295317  0.21195168  0.77592072    -0.16900
C1038       C  0.87487805  0.23802379  0.75995988     0.07100
C1039       C  0.87583787  0.26727690  0.73951472     0.09000
C1040       C  0.87785290  0.29329576  0.72351789    -0.17800
C1041       C  0.78938420  0.41557532  0.64700192    -0.16900
C1042       C  0.76475884  0.41596352  0.63337628     0.07100
C1043       C  0.73649735  0.41591858  0.61603005     0.09000
C1044       C  0.71187884  0.41546825  0.60238954    -0.17800
C1045       C  0.96705555  0.35260696  0.64582111    -0.16900
C1046       C  0.98825953  0.34914409  0.63261394     0.07100
C1047       C  0.51295249  0.34911387  0.61653627     0.09000
C1048       C  0.53416858  0.35253011  0.60334122    -0.17800
C1049       C  0.87846495  0.71197410  0.97339272    -0.16900
C1050       C  0.87654758  0.73804983  0.98935103     0.07100
C1051       C  0.87559789  0.76729927  0.50980094     0.09000
C1052       C  0.87358946  0.79331140  0.52580698    -0.17800
C1053       C  0.87867557  0.52968697  0.84500986    -0.16900
C1054       C  0.87767330  0.50766357  0.82484530     0.07100
C1055       C  0.87709791  0.48058492  0.80232156     0.09000
C1056       C  0.87792909  0.45960510  0.78164014    -0.17800
C1057       C  0.87745574  0.54562857  0.53172673    -0.16900
C1058       C  0.87674220  0.52444496  0.55227111     0.07100
C1059       C  0.87753947  0.49713986  0.57460489     0.09000
C1060       C  0.87873004  0.47500096  0.59468355    -0.17800
C1061       C  0.96433014  0.51568452  0.97643746    -0.16900
C1062       C  0.98681311  0.50574894  0.99097632     0.07100
C1063       C  0.51359457  0.49842499  0.50914194     0.09000
C1064       C  0.53618019  0.48855948  0.52352102    -0.17800
C1065       C  0.62791398  0.79312143  0.72353808    -0.16900
C1066       C  0.62586857  0.76710583  0.73952863     0.07100
C1067       C  0.62487427  0.73785995  0.75997192     0.09000
C1068       C  0.62292332  0.71179280  0.77592967    -0.17800
C1069       C  0.62350655  0.45935580  0.96761153    -0.16900
C1070       C  0.62436671  0.48032510  0.94692718     0.07100
C1071       C  0.62381345  0.50740212  0.92440336     0.09000
C1072       C  0.62281487  0.52943269  0.90424341    -0.17800
C1073       C  0.62242923  0.47491887  0.65452589    -0.16900
C1074       C  0.62360981  0.49706100  0.67460062     0.07100
C1075       C  0.62442072  0.52435979  0.69694081     0.09000
C1076       C  0.62373842  0.54553399  0.71749748    -0.17800
C1077       C  0.71206130  0.59019666  0.85209743    -0.16900
C1078       C  0.73663353  0.58996725  0.86580393     0.07100
C1079       C  0.76479715  0.59003868  0.88328188     0.09000
C1080       C  0.78935887  0.59036285  0.89701209    -0.17800
C1081       C  0.96728121  0.65164227  0.89607732    -0.16900
C1082       C  0.98844718  0.65503585  0.88283102     0.07100
C1083       C  0.51305042  0.65499670  0.86666594     0.09000
C1084       C  0.53419828  0.65154353  0.85340044    -0.17800
C1085       C  0.96514763  0.48870824  0.72563166    -0.16900
C1086       C  0.98773847  0.49851944  0.74003450     0.07100
C1087       C  0.51451662  0.50575596  0.75824138     0.09000
C1088       C  0.53699941  0.51561695  0.77282782    -0.17800
loop_ 
_geom_bond_atom_site_label_1 
_geom_bond_atom_site_label_2 
_geom_bond_distance 
_geom_bond_site_symmetry_2 
_ccdc_geom_bond_type 
Fe1          O17   2.055       .  S
Fe1           O7   2.113       .  S
Fe1          O14   2.124       .  S
Fe1           O6   2.052       .  S
Fe1          O12   1.941       .  S
Fe2           O5   2.020       .  S
Fe2           O9   2.094       .  S
Fe2          O13   2.032       .  S
Fe2          O18   2.103       .  S
Fe2          O12   1.942       .  S
Fe3          O21   2.100       .  S
Fe3           O8   2.043       .  S
Fe3          O15   2.035       .  S
Fe3           O4   2.091       .  S
Fe3          O12   1.947       .  S
O4           C11   1.272       .  A
O5           C19   1.258       .  A
O6           C11   1.266       .  A
O7           C10   1.279       .  A
O8           C20   1.265       .  A
O9           C22   1.271       .  A
C10          O15   1.265       .  A
C10         C256   1.436       .  S
C11         C261   1.436       .  S
O13          C16   1.264       .  A
O14          C16   1.282       .  A
C16         C252   1.441       .  S
O17          C22   1.264       .  A
O18          C20   1.275       .  A
C19          O21   1.273       .  A
C19         C272   1.420       .  S
C20         C260   1.435       .  S
C22         C268   1.443       .  S
Fe23         O39   2.055       .  S
Fe23         O29   2.113       .  S
Fe23         O36   2.124       .  S
Fe23         O28   2.052       .  S
Fe23         O34   1.941       .  S
Fe24         O27   2.020       .  S
Fe24         O31   2.094       .  S
Fe24         O35   2.032       .  S
Fe24        O312   2.103       .  S
Fe24         O34   1.942       .  S
Fe25         O43   2.100       .  S
Fe25         O30   2.043       .  S
Fe25         O37   2.035       .  S
Fe25         O26   2.091       .  S
Fe25         O34   1.947       .  S
O26          C33   1.272       .  A
O27          C41   1.258       .  A
O28          C33   1.266       .  A
O29          C32   1.279       .  A
O30         C314   1.265       .  A
O31          C44   1.271       .  A
C32          O37   1.265       .  A
C32         C237   1.436       .  S
C33         C264   1.436       .  S
O35          C38   1.264       .  A
O36          C38   1.282       .  A
C38         C233   1.441       .  S
O39          C44   1.264       .  A
O40        Fe296   2.103   1_554  S
O40          C42   1.275       .  A
C41          O43   1.273       .  A
C41         C245   1.420       .  S
C42         O302   1.265   1_554  A
C42         C241   1.435       .  S
C44         C265   1.443       .  S
Fe45         O61   2.124       .  S
Fe45         O51   2.053       .  S
Fe45         O58   2.056       .  S
Fe45         O50   2.112       .  S
Fe45         O56   1.941       .  S
Fe46         O49   2.104       .  S
Fe46         O53   2.032       .  S
Fe46         O57   2.095       .  S
Fe46         O62   2.020       .  S
Fe46         O56   1.943       .  S
Fe47         O65   2.044       .  S
Fe47         O52   2.100       .  S
Fe47         O59   2.092       .  S
Fe47         O48   2.035       .  S
Fe47         O56   1.947       .  S
O48          C55   1.265       .  A
O49          C63   1.275       .  A
O50          C55   1.279       .  A
O51          C54   1.267       .  A
O52          C64   1.273       .  A
O53          C66   1.264       .  A
C54          O59   1.273       .  A
C54         C225   1.438       .  S
C55         C244   1.435       .  S
O57          C60   1.272       .  A
O58          C60   1.264       .  A
C60         C229   1.444       .  S
O61          C66   1.282       .  A
O62          C64   1.258       .  A
C63          O65   1.265       .  A
C63         C240   1.435       .  S
C64         C269   1.420       .  S
C66         C224   1.441       .  S
Fe67         O83   2.124       .  S
Fe67         O73   2.053       .  S
Fe67         O80   2.056       .  S
Fe67         O72   2.112       .  S
Fe67         O78   1.942       .  S
Fe68         O75   2.032       .  S
Fe68         O79   2.095       .  S
Fe68         O84   2.020       .  S
Fe68        O343   2.104   1_554  S
Fe68         O78   1.943       .  S
Fe69         O87   2.044       .  S
Fe69         O74   2.100       .  S
Fe69         O81   2.092       .  S
Fe69         O70   2.035       .  S
Fe69         O78   1.947       .  S
O70          C77   1.265       .  A
O71        Fe340   2.104       .  S
O71          C85   1.275       .  A
O72          C77   1.279       .  A
O73          C76   1.267       .  A
O74          C86   1.273       .  A
O75          C88   1.264       .  A
C76          O81   1.273       .  A
C76         C228   1.438       .  S
C77         C257   1.435       .  S
O79          C82   1.272       .  A
O80          C82   1.264       .  A
C82         C232   1.444       .  S
O83          C88   1.282       .  A
O84          C86   1.258       .  A
C85         O359   1.265       .  A
C85         C253   1.435       .  S
C86         C248   1.420       .  S
O87         C357   1.265   1_554  A
C88         C217   1.441       .  S
Fe89        O105   2.124       .  S
Fe89         O95   2.053       .  S
Fe89        O102   2.056       .  S
Fe89         O94   2.112       .  S
Fe89        O100   1.941       .  S
Fe90         O97   2.032       .  S
Fe90        O101   2.095       .  S
Fe90        O106   2.020       .  S
Fe90        O365   2.104   1_554  S
Fe90        O100   1.943       .  S
Fe91        O109   2.044       .  S
Fe91         O96   2.100       .  S
Fe91        O103   2.092       .  S
Fe91         O92   2.035       .  S
Fe91        O100   1.947       .  S
O92          C99   1.265       .  A
O93        Fe362   2.104       .  S
O93         C107   1.275       .  A
O94          C99   1.279       .  A
O95          C98   1.267       .  A
O96         C108   1.273       .  A
O97         C110   1.264       .  A
C98         O103   1.273       .  A
C98         C216   1.438       .  S
C99         C208   1.435       .  S
O101        C104   1.272       .  A
O102        C104   1.264       .  A
C104        C209   1.444       .  S
O105        C110   1.282       .  A
O106        C108   1.258       .  A
C107        O381   1.265       .  A
C107        C201   1.435       .  S
C108        C200   1.420       .  S
O109        C379   1.265   1_554  A
C110        C236   1.441       .  S
Fe111       O127   2.123       .  S
Fe111       O117   2.053       .  S
Fe111       O124   2.056       .  S
Fe111       O116   2.112       .  S
Fe111       O122   1.942       .  S
Fe112       O115   2.104       .  S
Fe112       O119   2.032       .  S
Fe112       O123   2.095       .  S
Fe112       O128   2.020       .  S
Fe112       O122   1.943       .  S
Fe113       O131   2.044       .  S
Fe113       O118   2.100       .  S
Fe113       O125   2.092       .  S
Fe113       O114   2.035       .  S
Fe113       O122   1.947       .  S
O114        C121   1.265       .  A
O115        C129   1.275       .  A
O116        C121   1.279       .  A
O117        C120   1.267       .  A
O118        C130   1.273       .  A
O119        C132   1.264       .  A
C120        O125   1.273       .  A
C120        C213   1.438       .  S
C121        C196   1.435       .  S
O123        C126   1.272       .  A
O124        C126   1.264       .  A
C126        C212   1.444       .  S
O127        C132   1.282       .  A
O128        C130   1.258       .  A
C129        O131   1.265       .  A
C129        C192   1.435       .  S
C130        C185   1.420       .  S
C132        C249   1.441       .  S
Fe133       O149   2.055       .  S
Fe133       O139   2.113       .  S
Fe133       O146   2.124       .  S
Fe133       O138   2.052       .  S
Fe133       O144   1.941       .  S
Fe134       O137   2.020       .  S
Fe134       O141   2.094       .  S
Fe134       O145   2.032       .  S
Fe134       O422   2.103       .  S
Fe134       O144   1.942       .  S
Fe135       O153   2.100       .  S
Fe135       O140   2.043       .  S
Fe135       O147   2.035       .  S
Fe135       O136   2.091       .  S
Fe135       O144   1.947       .  S
O136        C143   1.272       .  A
O137        C151   1.258       .  A
O138        C143   1.266       .  A
O139        C142   1.279       .  A
O140        C424   1.265       .  A
O141        C154   1.271       .  A
C142        O147   1.265       .  A
C142        C189   1.436       .  S
C143        C184   1.436       .  S
O145        C148   1.264       .  A
O146        C148   1.282       .  A
C148        C220   1.441       .  S
O149        C154   1.264       .  A
O150       Fe406   2.103   1_554  S
O150        C152   1.275       .  A
C151        O153   1.273       .  A
C151        C197   1.420       .  S
C152        O412   1.265   1_554  A
C152        C193   1.435       .  S
C154        C177   1.443       .  S
Fe155       O171   2.055       .  S
Fe155       O161   2.113       .  S
Fe155       O168   2.124       .  S
Fe155       O160   2.052       .  S
Fe155       O166   1.941       .  S
Fe156       O159   2.020       .  S
Fe156       O163   2.094       .  S
Fe156       O167   2.032       .  S
Fe156       O172   2.103       .  S
Fe156       O166   1.942       .  S
Fe157       O175   2.100       .  S
Fe157       O162   2.043       .  S
Fe157       O169   2.035       .  S
Fe157       O158   2.091       .  S
Fe157       O166   1.947       .  S
O158        C165   1.272       .  A
O159        C173   1.258       .  A
O160        C165   1.266       .  A
O161        C164   1.279       .  A
O162        C174   1.265       .  A
O163        C176   1.271       .  A
C164        O169   1.265       .  A
C164        C204   1.436       .  S
C165        C181   1.436       .  S
O167        C170   1.264       .  A
O168        C170   1.282       .  A
C170        C221   1.441       .  S
O171        C176   1.264       .  A
O172        C174   1.275       .  A
C173        O175   1.273       .  A
C173        C188   1.420       .  S
C174        C205   1.435       .  S
C176        C180   1.443       .  S
C177        C178   1.211       .  T
C178        C179   1.420       .  S
C179        C180   1.211       .  T
C181        C182   1.207       .  T
C182        C727   1.414       .  S
C183        C184   1.207       .  T
C183        C726   1.414   1_455  S
C185        C186   1.198       .  T
C186        C187   1.401   1_565  S
C187        C188   1.198       .  T
C189        C190   1.207       .  T
C190        C191   1.414   1_545  S
C191        C192   1.207       .  T
C193        C194   1.206       .  T
C194        C195   1.414   1_545  S
C195        C196   1.207       .  T
C197        C198   1.199       .  T
C198        C471   1.402   1_545  S
C199        C200   1.199       .  T
C199        C470   1.402   1_564  S
C201        C202   1.207       .  T
C202        C203   1.414   1_565  S
C203        C204   1.207       .  T
C205        C206   1.206       .  T
C206        C207   1.414   1_545  S
C207        C208   1.207       .  T
C209        C210   1.211       .  T
C210        C211   1.421       .  S
C211        C212   1.211       .  T
C213        C214   1.208       .  T
C214        C759   1.415   1_455  S
C215        C216   1.208       .  T
C215        C758   1.415       .  S
C217        C218   1.210       .  T
C218        C491   1.420   1_554  S
C219        C220   1.210       .  T
C219        C490   1.420       .  S
C221        C222   1.210       .  T
C222        C223   1.420       .  S
C223        C224   1.210       .  T
C225        C226   1.208       .  T
C226        C227   1.415       .  S
C227        C228   1.208       .  T
C229        C230   1.211       .  T
C230        C775   1.421       .  S
C231        C232   1.211       .  T
C231        C774   1.421   1_455  S
C233        C234   1.210       .  T
C234        C507   1.420       .  S
C235        C236   1.210       .  T
C235        C506   1.420   1_554  S
C237        C238   1.207       .  T
C238        C239   1.414       .  S
C239        C240   1.207       .  T
C241        C242   1.206       .  T
C242        C243   1.414       .  S
C243        C244   1.207       .  T
C245        C246   1.198       .  T
C246       C1063   1.401       .  S
C247        C248   1.198       .  T
C247       C1062   1.401   1_454  S
C249        C250   1.210       .  T
C250        C251   1.420       .  S
C251        C252   1.210       .  T
C253        C254   1.207       .  T
C254        C255   1.414       .  S
C255        C256   1.207       .  T
C257        C258   1.207       .  T
C258        C259   1.414       .  S
C259        C260   1.206       .  T
C261        C262   1.207       .  T
C262        C263   1.414       .  S
C263        C264   1.207       .  T
C265        C266   1.211       .  T
C266        C811   1.420       .  S
C267        C268   1.211       .  T
C267        C810   1.420   1_455  S
C269        C270   1.199       .  T
C270        C815   1.402       .  S
C271        C272   1.199       .  T
C271        C814   1.402   1_455  S
Fe273       O289   2.055       .  S
Fe273       O279   2.113       .  S
Fe273       O286   2.124       .  S
Fe273       O278   2.052       .  S
Fe273       O284   1.941       .  S
Fe274       O277   2.020       .  S
Fe274       O281   2.094       .  S
Fe274       O285   2.032       .  S
Fe274       O290   2.103       .  S
Fe274       O284   1.942       .  S
Fe275       O293   2.100       .  S
Fe275       O280   2.043       .  S
Fe275       O287   2.035       .  S
Fe275       O276   2.091       .  S
Fe275       O284   1.947       .  S
O276        C283   1.272       .  A
O277        C291   1.258       .  A
O278        C283   1.266       .  A
O279        C282   1.279       .  A
O280        C292   1.265       .  A
O281        C294   1.271       .  A
C282        O287   1.265       .  A
C282        C528   1.436       .  S
C283        C533   1.436       .  S
O285        C288   1.264       .  A
O286        C288   1.282       .  A
C288        C524   1.441       .  S
O289        C294   1.264       .  A
O290        C292   1.275       .  A
C291        O293   1.273       .  A
C291        C544   1.420       .  S
C292        C532   1.435       .  S
C294        C540   1.443       .  S
Fe295       O311   2.055       .  S
Fe295       O301   2.113       .  S
Fe295       O308   2.124       .  S
Fe295       O300   2.052       .  S
Fe295       O306   1.941       .  S
Fe296       O299   2.020       .  S
Fe296       O303   2.094       .  S
Fe296       O307   2.032       .  S
Fe296       O306   1.942       .  S
Fe297       O315   2.100       .  S
Fe297       O302   2.043       .  S
Fe297       O309   2.035       .  S
Fe297       O298   2.091       .  S
Fe297       O306   1.947       .  S
O298        C305   1.272       .  A
O299        C313   1.258       .  A
O300        C305   1.266       .  A
O301        C304   1.279       .  A
O303        C316   1.271       .  A
C304        O309   1.265       .  A
C304        C509   1.436       .  S
C305        C536   1.436       .  S
O307        C310   1.264       .  A
O308        C310   1.282       .  A
C310        C505   1.441       .  S
O311        C316   1.264       .  A
O312        C314   1.275       .  A
C313        O315   1.273       .  A
C313        C517   1.420       .  S
C314        C513   1.435       .  S
C316        C537   1.443       .  S
Fe317       O333   2.124       .  S
Fe317       O323   2.053       .  S
Fe317       O330   2.056       .  S
Fe317       O322   2.112       .  S
Fe317       O328   1.941       .  S
Fe318       O321   2.104       .  S
Fe318       O325   2.032       .  S
Fe318       O329   2.095       .  S
Fe318       O334   2.020       .  S
Fe318       O328   1.943       .  S
Fe319       O337   2.044       .  S
Fe319       O324   2.100       .  S
Fe319       O331   2.092       .  S
Fe319       O320   2.035       .  S
Fe319       O328   1.947       .  S
O320        C327   1.265       .  A
O321        C335   1.275       .  A
O322        C327   1.279       .  A
O323        C326   1.267       .  A
O324        C336   1.273       .  A
O325        C338   1.264       .  A
C326        O331   1.273       .  A
C326        C497   1.438       .  S
C327        C516   1.435       .  S
O329        C332   1.272       .  A
O330        C332   1.264       .  A
C332        C501   1.444       .  S
O333        C338   1.282       .  A
O334        C336   1.258       .  A
C335        O337   1.265       .  A
C335        C512   1.435       .  S
C336        C541   1.420       .  S
C338        C496   1.441       .  S
Fe339       O355   2.124       .  S
Fe339       O345   2.053       .  S
Fe339       O352   2.056       .  S
Fe339       O344   2.112       .  S
Fe339       O350   1.942       .  S
Fe340       O347   2.032       .  S
Fe340       O351   2.095       .  S
Fe340       O356   2.020       .  S
Fe340       O350   1.943       .  S
Fe341       O359   2.044       .  S
Fe341       O346   2.100       .  S
Fe341       O353   2.092       .  S
Fe341       O342   2.035       .  S
Fe341       O350   1.947       .  S
O342        C349   1.265       .  A
O343        C357   1.275       .  A
O344        C349   1.279       .  A
O345        C348   1.267       .  A
O346        C358   1.273       .  A
O347        C360   1.264       .  A
C348        O353   1.273       .  A
C348        C500   1.438       .  S
C349        C529   1.435       .  S
O351        C354   1.272       .  A
O352        C354   1.264       .  A
C354        C504   1.444       .  S
O355        C360   1.282       .  A
O356        C358   1.258       .  A
C357        C525   1.435       .  S
C358        C520   1.420       .  S
C360        C489   1.441       .  S
Fe361       O377   2.124       .  S
Fe361       O367   2.053       .  S
Fe361       O374   2.056       .  S
Fe361       O366   2.112       .  S
Fe361       O372   1.941       .  S
Fe362       O369   2.032       .  S
Fe362       O373   2.095       .  S
Fe362       O378   2.020       .  S
Fe362       O372   1.943       .  S
Fe363       O381   2.044       .  S
Fe363       O368   2.100       .  S
Fe363       O375   2.092       .  S
Fe363       O364   2.035       .  S
Fe363       O372   1.947       .  S
O364        C371   1.265       .  A
O365        C379   1.275       .  A
O366        C371   1.279       .  A
O367        C370   1.267       .  A
O368        C380   1.273       .  A
O369        C382   1.264       .  A
C370        O375   1.273       .  A
C370        C488   1.438       .  S
C371        C480   1.435       .  S
O373        C376   1.272       .  A
O374        C376   1.264       .  A
C376        C481   1.444       .  S
O377        C382   1.282       .  A
O378        C380   1.258       .  A
C379        C473   1.435       .  S
C380        C472   1.420       .  S
C382        C508   1.441       .  S
Fe383       O399   2.123       .  S
Fe383       O389   2.053       .  S
Fe383       O396   2.056       .  S
Fe383       O388   2.112       .  S
Fe383       O394   1.942       .  S
Fe384       O387   2.104       .  S
Fe384       O391   2.032       .  S
Fe384       O395   2.095       .  S
Fe384       O400   2.020       .  S
Fe384       O394   1.943       .  S
Fe385       O403   2.044       .  S
Fe385       O390   2.100       .  S
Fe385       O397   2.092       .  S
Fe385       O386   2.035       .  S
Fe385       O394   1.947       .  S
O386        C393   1.265       .  A
O387        C401   1.275       .  A
O388        C393   1.279       .  A
O389        C392   1.267       .  A
O390        C402   1.273       .  A
O391        C404   1.264       .  A
C392        O397   1.273       .  A
C392        C485   1.438       .  S
C393        C468   1.435       .  S
O395        C398   1.272       .  A
O396        C398   1.264       .  A
C398        C484   1.444       .  S
O399        C404   1.282       .  A
O400        C402   1.258       .  A
C401        O403   1.265       .  A
C401        C464   1.435       .  S
C402        C457   1.420       .  S
C404        C521   1.441       .  S
Fe405       O421   2.055       .  S
Fe405       O411   2.113       .  S
Fe405       O418   2.124       .  S
Fe405       O410   2.052       .  S
Fe405       O416   1.941       .  S
Fe406       O409   2.020       .  S
Fe406       O413   2.094       .  S
Fe406       O417   2.032       .  S
Fe406       O416   1.942       .  S
Fe407       O425   2.100       .  S
Fe407       O412   2.043       .  S
Fe407       O419   2.035       .  S
Fe407       O408   2.091       .  S
Fe407       O416   1.947       .  S
O408        C415   1.272       .  A
O409        C423   1.258       .  A
O410        C415   1.266       .  A
O411        C414   1.279       .  A
O413        C426   1.271       .  A
C414        O419   1.265       .  A
C414        C461   1.436       .  S
C415        C456   1.436       .  S
O417        C420   1.264       .  A
O418        C420   1.282       .  A
C420        C492   1.441       .  S
O421        C426   1.264       .  A
O422        C424   1.275       .  A
C423        O425   1.273       .  A
C423        C469   1.420       .  S
C424        C465   1.435       .  S
C426        C449   1.443       .  S
Fe427       O443   2.055       .  S
Fe427       O433   2.113       .  S
Fe427       O440   2.124       .  S
Fe427       O432   2.052       .  S
Fe427       O438   1.941       .  S
Fe428       O431   2.020       .  S
Fe428       O435   2.094       .  S
Fe428       O439   2.032       .  S
Fe428       O444   2.103       .  S
Fe428       O438   1.942       .  S
Fe429       O447   2.100       .  S
Fe429       O434   2.043       .  S
Fe429       O441   2.035       .  S
Fe429       O430   2.091       .  S
Fe429       O438   1.947       .  S
O430        C437   1.272       .  A
O431        C445   1.258       .  A
O432        C437   1.266       .  A
O433        C436   1.279       .  A
O434        C446   1.265       .  A
O435        C448   1.271       .  A
C436        O441   1.265       .  A
C436        C476   1.436       .  S
C437        C453   1.436       .  S
O439        C442   1.264       .  A
O440        C442   1.282       .  A
C442        C493   1.441       .  S
O443        C448   1.264       .  A
O444        C446   1.275       .  A
C445        O447   1.273       .  A
C445        C460   1.420       .  S
C446        C477   1.435       .  S
C448        C452   1.443       .  S
C449        C450   1.211       .  T
C450        C451   1.420       .  S
C451        C452   1.211       .  T
C453        C454   1.207       .  T
C454        C999   1.414       .  S
C455        C456   1.207       .  T
C455        C998   1.414   1_455  S
C457        C458   1.198       .  T
C458        C459   1.401   1_565  S
C459        C460   1.198       .  T
C461        C462   1.207       .  T
C462        C463   1.414   1_545  S
C463        C464   1.207       .  T
C465        C466   1.206       .  T
C466        C467   1.414   1_545  S
C467        C468   1.207       .  T
C469        C470   1.199       .  T
C471        C472   1.199       .  T
C473        C474   1.207       .  T
C474        C475   1.414   1_565  S
C475        C476   1.207       .  T
C477        C478   1.206       .  T
C478        C479   1.414   1_545  S
C479        C480   1.207       .  T
C481        C482   1.211       .  T
C482        C483   1.421       .  S
C483        C484   1.211       .  T
C485        C486   1.208       .  T
C486       C1031   1.415   1_455  S
C487        C488   1.208       .  T
C487       C1030   1.415       .  S
C489        C490   1.210       .  T
C491        C492   1.210       .  T
C493        C494   1.210       .  T
C494        C495   1.420       .  S
C495        C496   1.210       .  T
C497        C498   1.208       .  T
C498        C499   1.415       .  S
C499        C500   1.208       .  T
C501        C502   1.211       .  T
C502       C1047   1.421       .  S
C503        C504   1.211       .  T
C503       C1046   1.421   1_455  S
C505        C506   1.210       .  T
C507        C508   1.210       .  T
C509        C510   1.207       .  T
C510        C511   1.414       .  S
C511        C512   1.207       .  T
C513        C514   1.206       .  T
C514        C515   1.414       .  S
C515        C516   1.207       .  T
C517        C518   1.198       .  T
C518        C791   1.401   1_556  S
C519        C520   1.198       .  T
C519        C790   1.401   1_455  S
C521        C522   1.210       .  T
C522        C523   1.420       .  S
C523        C524   1.210       .  T
C525        C526   1.207       .  T
C526        C527   1.414       .  S
C527        C528   1.207       .  T
C529        C530   1.207       .  T
C530        C531   1.414       .  S
C531        C532   1.206       .  T
C533        C534   1.207       .  T
C534        C535   1.414       .  S
C535        C536   1.207       .  T
C537        C538   1.211       .  T
C538       C1083   1.420       .  S
C539        C540   1.211       .  T
C539       C1082   1.420   1_455  S
C541        C542   1.199       .  T
C542       C1087   1.402       .  S
C543        C544   1.199       .  T
C543       C1086   1.402   1_455  S
Fe545       O561   2.055       .  S
Fe545       O551   2.113       .  S
Fe545       O558   2.124       .  S
Fe545       O550   2.052       .  S
Fe545       O556   1.941       .  S
Fe546       O549   2.020       .  S
Fe546       O553   2.094       .  S
Fe546       O557   2.032       .  S
Fe546       O562   2.103       .  S
Fe546       O556   1.942       .  S
Fe547       O565   2.100       .  S
Fe547       O552   2.043       .  S
Fe547       O559   2.035       .  S
Fe547       O548   2.091       .  S
Fe547       O556   1.947       .  S
O548        C555   1.272       .  A
O549        C563   1.258       .  A
O550        C555   1.266       .  A
O551        C554   1.279       .  A
O552        C564   1.265       .  A
O553        C566   1.271       .  A
C554        O559   1.265       .  A
C554        C800   1.436       .  S
C555        C805   1.436       .  S
O557        C560   1.264       .  A
O558        C560   1.282       .  A
C560        C796   1.441       .  S
O561        C566   1.264       .  A
O562        C564   1.275       .  A
C563        O565   1.273       .  A
C563        C816   1.420       .  S
C564        C804   1.435       .  S
C566        C812   1.443       .  S
Fe567       O583   2.055       .  S
Fe567       O573   2.113       .  S
Fe567       O580   2.124       .  S
Fe567       O572   2.052       .  S
Fe567       O578   1.941       .  S
Fe568       O571   2.020       .  S
Fe568       O575   2.094       .  S
Fe568       O579   2.032       .  S
Fe568       O856   2.103       .  S
Fe568       O578   1.942       .  S
Fe569       O587   2.100       .  S
Fe569       O574   2.043       .  S
Fe569       O581   2.035       .  S
Fe569       O570   2.091       .  S
Fe569       O578   1.947       .  S
O570        C577   1.272       .  A
O571        C585   1.258       .  A
O572        C577   1.266       .  A
O573        C576   1.279       .  A
O574        C858   1.265       .  A
O575        C588   1.271       .  A
C576        O581   1.265       .  A
C576        C781   1.436       .  S
C577        C808   1.436       .  S
O579        C582   1.264       .  A
O580        C582   1.282       .  A
C582        C777   1.441       .  S
O583        C588   1.264       .  A
O584       Fe840   2.103   1_554  S
O584        C586   1.275       .  A
C585        O587   1.273       .  A
C585        C789   1.420       .  S
C586        O846   1.265   1_554  A
C586        C785   1.435       .  S
C588        C809   1.443       .  S
Fe589       O605   2.124       .  S
Fe589       O595   2.053       .  S
Fe589       O602   2.056       .  S
Fe589       O594   2.112       .  S
Fe589       O600   1.941       .  S
Fe590       O593   2.104       .  S
Fe590       O597   2.032       .  S
Fe590       O601   2.095       .  S
Fe590       O606   2.020       .  S
Fe590       O600   1.943       .  S
Fe591       O609   2.044       .  S
Fe591       O596   2.100       .  S
Fe591       O603   2.092       .  S
Fe591       O592   2.035       .  S
Fe591       O600   1.947       .  S
O592        C599   1.265       .  A
O593        C607   1.275       .  A
O594        C599   1.279       .  A
O595        C598   1.267       .  A
O596        C608   1.273       .  A
O597        C610   1.264       .  A
C598        O603   1.273       .  A
C598        C769   1.438       .  S
C599        C788   1.435       .  S
O601        C604   1.272       .  A
O602        C604   1.264       .  A
C604        C773   1.444       .  S
O605        C610   1.282       .  A
O606        C608   1.258       .  A
C607        O609   1.265       .  A
C607        C784   1.435       .  S
C608        C813   1.420       .  S
C610        C768   1.441       .  S
Fe611       O627   2.124       .  S
Fe611       O617   2.053       .  S
Fe611       O624   2.056       .  S
Fe611       O616   2.112       .  S
Fe611       O622   1.942       .  S
Fe612       O887   2.104   1_554  S
Fe612       O619   2.032       .  S
Fe612       O623   2.095       .  S
Fe612       O628   2.020       .  S
Fe612       O622   1.943       .  S
Fe613       O631   2.044       .  S
Fe613       O618   2.100       .  S
Fe613       O625   2.092       .  S
Fe613       O614   2.035       .  S
Fe613       O622   1.947       .  S
O614        C621   1.265       .  A
O615       Fe884   2.104       .  S
O615        C629   1.275       .  A
O616        C621   1.279       .  A
O617        C620   1.267       .  A
O618        C630   1.273       .  A
O619        C632   1.264       .  A
C620        O625   1.273       .  A
C620        C772   1.438       .  S
C621        C801   1.435       .  S
O623        C626   1.272       .  A
O624        C626   1.264       .  A
C626        C776   1.444       .  S
O627        C632   1.282       .  A
O628        C630   1.258       .  A
C629        O903   1.265       .  A
C629        C797   1.435       .  S
C630        C792   1.420       .  S
O631        C901   1.265   1_554  A
C632        C761   1.441       .  S
Fe633       O649   2.124       .  S
Fe633       O639   2.053       .  S
Fe633       O646   2.056       .  S
Fe633       O638   2.112       .  S
Fe633       O644   1.941       .  S
Fe634       O909   2.104   1_554  S
Fe634       O641   2.032       .  S
Fe634       O645   2.095       .  S
Fe634       O650   2.020       .  S
Fe634       O644   1.943       .  S
Fe635       O653   2.044       .  S
Fe635       O640   2.100       .  S
Fe635       O647   2.092       .  S
Fe635       O636   2.035       .  S
Fe635       O644   1.947       .  S
O636        C643   1.265       .  A
O637       Fe906   2.104       .  S
O637        C651   1.275       .  A
O638        C643   1.279       .  A
O639        C642   1.267       .  A
O640        C652   1.273       .  A
O641        C654   1.264       .  A
C642        O647   1.273       .  A
C642        C760   1.438       .  S
C643        C752   1.435       .  S
O645        C648   1.272       .  A
O646        C648   1.264       .  A
C648        C753   1.444       .  S
O649        C654   1.282       .  A
O650        C652   1.258       .  A
C651        O925   1.265       .  A
C651        C745   1.435       .  S
C652        C744   1.420       .  S
O653        C923   1.265   1_554  A
C654        C780   1.441       .  S
Fe655       O671   2.123       .  S
Fe655       O661   2.053       .  S
Fe655       O668   2.056       .  S
Fe655       O660   2.112       .  S
Fe655       O666   1.942       .  S
Fe656       O659   2.104       .  S
Fe656       O663   2.032       .  S
Fe656       O667   2.095       .  S
Fe656       O672   2.020       .  S
Fe656       O666   1.943       .  S
Fe657       O675   2.044       .  S
Fe657       O662   2.100       .  S
Fe657       O669   2.092       .  S
Fe657       O658   2.035       .  S
Fe657       O666   1.947       .  S
O658        C665   1.265       .  A
O659        C673   1.275       .  A
O660        C665   1.279       .  A
O661        C664   1.267       .  A
O662        C674   1.273       .  A
O663        C676   1.264       .  A
C664        O669   1.273       .  A
C664        C757   1.438       .  S
C665        C740   1.435       .  S
O667        C670   1.272       .  A
O668        C670   1.264       .  A
C670        C756   1.444       .  S
O671        C676   1.282       .  A
O672        C674   1.258       .  A
C673        O675   1.265       .  A
C673        C736   1.435       .  S
C674        C729   1.420       .  S
C676        C793   1.441       .  S
Fe677       O693   2.055       .  S
Fe677       O683   2.113       .  S
Fe677       O690   2.124       .  S
Fe677       O682   2.052       .  S
Fe677       O688   1.941       .  S
Fe678       O681   2.020       .  S
Fe678       O685   2.094       .  S
Fe678       O689   2.032       .  S
Fe678       O966   2.103       .  S
Fe678       O688   1.942       .  S
Fe679       O697   2.100       .  S
Fe679       O684   2.043       .  S
Fe679       O691   2.035       .  S
Fe679       O680   2.091       .  S
Fe679       O688   1.947       .  S
O680        C687   1.272       .  A
O681        C695   1.258       .  A
O682        C687   1.266       .  A
O683        C686   1.279       .  A
O684        C968   1.265       .  A
O685        C698   1.271       .  A
C686        O691   1.265       .  A
C686        C733   1.436       .  S
C687        C728   1.436       .  S
O689        C692   1.264       .  A
O690        C692   1.282       .  A
C692        C764   1.441       .  S
O693        C698   1.264       .  A
O694       Fe950   2.103   1_554  S
O694        C696   1.275       .  A
C695        O697   1.273       .  A
C695        C741   1.420       .  S
C696        O956   1.265   1_554  A
C696        C737   1.435       .  S
C698        C721   1.443       .  S
Fe699       O715   2.055       .  S
Fe699       O705   2.113       .  S
Fe699       O712   2.124       .  S
Fe699       O704   2.052       .  S
Fe699       O710   1.941       .  S
Fe700       O703   2.020       .  S
Fe700       O707   2.094       .  S
Fe700       O711   2.032       .  S
Fe700       O716   2.103       .  S
Fe700       O710   1.942       .  S
Fe701       O719   2.100       .  S
Fe701       O706   2.043       .  S
Fe701       O713   2.035       .  S
Fe701       O702   2.091       .  S
Fe701       O710   1.947       .  S
O702        C709   1.272       .  A
O703        C717   1.258       .  A
O704        C709   1.266       .  A
O705        C708   1.279       .  A
O706        C718   1.265       .  A
O707        C720   1.271       .  A
C708        O713   1.265       .  A
C708        C748   1.436       .  S
C709        C725   1.436       .  S
O711        C714   1.264       .  A
O712        C714   1.282       .  A
C714        C765   1.441       .  S
O715        C720   1.264       .  A
O716        C718   1.275       .  A
C717        O719   1.273       .  A
C717        C732   1.420       .  S
C718        C749   1.435       .  S
C720        C724   1.443       .  S
C721        C722   1.211       .  T
C722        C723   1.420       .  S
C723        C724   1.211       .  T
C725        C726   1.207       .  T
C727        C728   1.207       .  T
C729        C730   1.198       .  T
C730        C731   1.401   1_565  S
C731        C732   1.198       .  T
C733        C734   1.207       .  T
C734        C735   1.414   1_545  S
C735        C736   1.207       .  T
C737        C738   1.206       .  T
C738        C739   1.414   1_545  S
C739        C740   1.207       .  T
C741        C742   1.199       .  T
C742       C1015   1.402   1_545  S
C743        C744   1.199       .  T
C743       C1014   1.402   1_564  S
C745        C746   1.207       .  T
C746        C747   1.414   1_565  S
C747        C748   1.207       .  T
C749        C750   1.206       .  T
C750        C751   1.414   1_545  S
C751        C752   1.207       .  T
C753        C754   1.211       .  T
C754        C755   1.421       .  S
C755        C756   1.211       .  T
C757        C758   1.208       .  T
C759        C760   1.208       .  T
C761        C762   1.210       .  T
C762       C1035   1.420   1_554  S
C763        C764   1.210       .  T
C763       C1034   1.420       .  S
C765        C766   1.210       .  T
C766        C767   1.420       .  S
C767        C768   1.210       .  T
C769        C770   1.208       .  T
C770        C771   1.415       .  S
C771        C772   1.208       .  T
C773        C774   1.211       .  T
C775        C776   1.211       .  T
C777        C778   1.210       .  T
C778       C1051   1.420       .  S
C779        C780   1.210       .  T
C779       C1050   1.420   1_554  S
C781        C782   1.207       .  T
C782        C783   1.414       .  S
C783        C784   1.207       .  T
C785        C786   1.206       .  T
C786        C787   1.414       .  S
C787        C788   1.207       .  T
C789        C790   1.198       .  T
C791        C792   1.198       .  T
C793        C794   1.210       .  T
C794        C795   1.420       .  S
C795        C796   1.210       .  T
C797        C798   1.207       .  T
C798        C799   1.414       .  S
C799        C800   1.207       .  T
C801        C802   1.207       .  T
C802        C803   1.414       .  S
C803        C804   1.206       .  T
C805        C806   1.207       .  T
C806        C807   1.414       .  S
C807        C808   1.207       .  T
C809        C810   1.211       .  T
C811        C812   1.211       .  T
C813        C814   1.199       .  T
C815        C816   1.199       .  T
Fe817       O833   2.055       .  S
Fe817       O823   2.113       .  S
Fe817       O830   2.124       .  S
Fe817       O822   2.052       .  S
Fe817       O828   1.941       .  S
Fe818       O821   2.020       .  S
Fe818       O825   2.094       .  S
Fe818       O829   2.032       .  S
Fe818       O834   2.103       .  S
Fe818       O828   1.942       .  S
Fe819       O837   2.100       .  S
Fe819       O824   2.043       .  S
Fe819       O831   2.035       .  S
Fe819       O820   2.091       .  S
Fe819       O828   1.947       .  S
O820        C827   1.272       .  A
O821        C835   1.258       .  A
O822        C827   1.266       .  A
O823        C826   1.279       .  A
O824        C836   1.265       .  A
O825        C838   1.271       .  A
C826        O831   1.265       .  A
C826       C1072   1.436       .  S
C827       C1077   1.436       .  S
O829        C832   1.264       .  A
O830        C832   1.282       .  A
C832       C1068   1.441       .  S
O833        C838   1.264       .  A
O834        C836   1.275       .  A
C835        O837   1.273       .  A
C835       C1088   1.420       .  S
C836       C1076   1.435       .  S
C838       C1084   1.443       .  S
Fe839       O855   2.055       .  S
Fe839       O845   2.113       .  S
Fe839       O852   2.124       .  S
Fe839       O844   2.052       .  S
Fe839       O850   1.941       .  S
Fe840       O843   2.020       .  S
Fe840       O847   2.094       .  S
Fe840       O851   2.032       .  S
Fe840       O850   1.942       .  S
Fe841       O859   2.100       .  S
Fe841       O846   2.043       .  S
Fe841       O853   2.035       .  S
Fe841       O842   2.091       .  S
Fe841       O850   1.947       .  S
O842        C849   1.272       .  A
O843        C857   1.258       .  A
O844        C849   1.266       .  A
O845        C848   1.279       .  A
O847        C860   1.271       .  A
C848        O853   1.265       .  A
C848       C1053   1.436       .  S
C849       C1080   1.436       .  S
O851        C854   1.264       .  A
O852        C854   1.282       .  A
C854       C1049   1.441       .  S
O855        C860   1.264       .  A
O856        C858   1.275       .  A
C857        O859   1.273       .  A
C857       C1061   1.420       .  S
C858       C1057   1.435       .  S
C860       C1081   1.443       .  S
Fe861       O877   2.124       .  S
Fe861       O867   2.053       .  S
Fe861       O874   2.056       .  S
Fe861       O866   2.112       .  S
Fe861       O872   1.941       .  S
Fe862       O865   2.104       .  S
Fe862       O869   2.032       .  S
Fe862       O873   2.095       .  S
Fe862       O878   2.020       .  S
Fe862       O872   1.943       .  S
Fe863       O881   2.044       .  S
Fe863       O868   2.100       .  S
Fe863       O875   2.092       .  S
Fe863       O864   2.035       .  S
Fe863       O872   1.947       .  S
O864        C871   1.265       .  A
O865        C879   1.275       .  A
O866        C871   1.279       .  A
O867        C870   1.267       .  A
O868        C880   1.273       .  A
O869        C882   1.264       .  A
C870        O875   1.273       .  A
C870       C1041   1.438       .  S
C871       C1060   1.435       .  S
O873        C876   1.272       .  A
O874        C876   1.264       .  A
C876       C1045   1.444       .  S
O877        C882   1.282       .  A
O878        C880   1.258       .  A
C879        O881   1.265       .  A
C879       C1056   1.435       .  S
C880       C1085   1.420       .  S
C882       C1040   1.441       .  S
Fe883       O899   2.124       .  S
Fe883       O889   2.053       .  S
Fe883       O896   2.056       .  S
Fe883       O888   2.112       .  S
Fe883       O894   1.942       .  S
Fe884       O891   2.032       .  S
Fe884       O895   2.095       .  S
Fe884       O900   2.020       .  S
Fe884       O894   1.943       .  S
Fe885       O903   2.044       .  S
Fe885       O890   2.100       .  S
Fe885       O897   2.092       .  S
Fe885       O886   2.035       .  S
Fe885       O894   1.947       .  S
O886        C893   1.265       .  A
O887        C901   1.275       .  A
O888        C893   1.279       .  A
O889        C892   1.267       .  A
O890        C902   1.273       .  A
O891        C904   1.264       .  A
C892        O897   1.273       .  A
C892       C1044   1.438       .  S
C893       C1073   1.435       .  S
O895        C898   1.272       .  A
O896        C898   1.264       .  A
C898       C1048   1.444       .  S
O899        C904   1.282       .  A
O900        C902   1.258       .  A
C901       C1069   1.435       .  S
C902       C1064   1.420       .  S
C904       C1033   1.441       .  S
Fe905       O921   2.124       .  S
Fe905       O911   2.053       .  S
Fe905       O918   2.056       .  S
Fe905       O910   2.112       .  S
Fe905       O916   1.941       .  S
Fe906       O913   2.032       .  S
Fe906       O917   2.095       .  S
Fe906       O922   2.020       .  S
Fe906       O916   1.943       .  S
Fe907       O925   2.044       .  S
Fe907       O912   2.100       .  S
Fe907       O919   2.092       .  S
Fe907       O908   2.035       .  S
Fe907       O916   1.947       .  S
O908        C915   1.265       .  A
O909        C923   1.275       .  A
O910        C915   1.279       .  A
O911        C914   1.267       .  A
O912        C924   1.273       .  A
O913        C926   1.264       .  A
C914        O919   1.273       .  A
C914       C1032   1.438       .  S
C915       C1024   1.435       .  S
O917        C920   1.272       .  A
O918        C920   1.264       .  A
C920       C1025   1.444       .  S
O921        C926   1.282       .  A
O922        C924   1.258       .  A
C923       C1017   1.435       .  S
C924       C1016   1.420       .  S
C926       C1052   1.441       .  S
Fe927       O943   2.123       .  S
Fe927       O933   2.053       .  S
Fe927       O940   2.056       .  S
Fe927       O932   2.112       .  S
Fe927       O938   1.942       .  S
Fe928       O931   2.104       .  S
Fe928       O935   2.032       .  S
Fe928       O939   2.095       .  S
Fe928       O944   2.020       .  S
Fe928       O938   1.943       .  S
Fe929       O947   2.044       .  S
Fe929       O934   2.100       .  S
Fe929       O941   2.092       .  S
Fe929       O930   2.035       .  S
Fe929       O938   1.947       .  S
O930        C937   1.265       .  A
O931        C945   1.275       .  A
O932        C937   1.279       .  A
O933        C936   1.267       .  A
O934        C946   1.273       .  A
O935        C948   1.264       .  A
C936        O941   1.273       .  A
C936       C1029   1.438       .  S
C937       C1012   1.435       .  S
O939        C942   1.272       .  A
O940        C942   1.264       .  A
C942       C1028   1.444       .  S
O943        C948   1.282       .  A
O944        C946   1.258       .  A
C945        O947   1.265       .  A
C945       C1008   1.435       .  S
C946       C1001   1.420       .  S
C948       C1065   1.441       .  S
Fe949       O965   2.055       .  S
Fe949       O955   2.113       .  S
Fe949       O962   2.124       .  S
Fe949       O954   2.052       .  S
Fe949       O960   1.941       .  S
Fe950       O953   2.020       .  S
Fe950       O957   2.094       .  S
Fe950       O961   2.032       .  S
Fe950       O960   1.942       .  S
Fe951       O969   2.100       .  S
Fe951       O956   2.043       .  S
Fe951       O963   2.035       .  S
Fe951       O952   2.091       .  S
Fe951       O960   1.947       .  S
O952        C959   1.272       .  A
O953        C967   1.258       .  A
O954        C959   1.266       .  A
O955        C958   1.279       .  A
O957        C970   1.271       .  A
C958        O963   1.265       .  A
C958       C1005   1.436       .  S
C959       C1000   1.436       .  S
O961        C964   1.264       .  A
O962        C964   1.282       .  A
C964       C1036   1.441       .  S
O965        C970   1.264       .  A
O966        C968   1.275       .  A
C967        O969   1.273       .  A
C967       C1013   1.420       .  S
C968       C1009   1.435       .  S
C970        C993   1.443       .  S
Fe971       O987   2.055       .  S
Fe971       O977   2.113       .  S
Fe971       O984   2.124       .  S
Fe971       O976   2.052       .  S
Fe971       O982   1.941       .  S
Fe972       O975   2.020       .  S
Fe972       O979   2.094       .  S
Fe972       O983   2.032       .  S
Fe972       O988   2.103       .  S
Fe972       O982   1.942       .  S
Fe973       O991   2.100       .  S
Fe973       O978   2.043       .  S
Fe973       O985   2.035       .  S
Fe973       O974   2.091       .  S
Fe973       O982   1.947       .  S
O974        C981   1.272       .  A
O975        C989   1.258       .  A
O976        C981   1.266       .  A
O977        C980   1.279       .  A
O978        C990   1.265       .  A
O979        C992   1.271       .  A
C980        O985   1.265       .  A
C980       C1020   1.436       .  S
C981        C997   1.436       .  S
O983        C986   1.264       .  A
O984        C986   1.282       .  A
C986       C1037   1.441       .  S
O987        C992   1.264       .  A
O988        C990   1.275       .  A
C989        O991   1.273       .  A
C989       C1004   1.420       .  S
C990       C1021   1.435       .  S
C992        C996   1.443       .  S
C993        C994   1.211       .  T
C994        C995   1.420       .  S
C995        C996   1.211       .  T
C997        C998   1.207       .  T
C999       C1000   1.207       .  T
C1001      C1002   1.198       .  T
C1002      C1003   1.401   1_565  S
C1003      C1004   1.198       .  T
C1005      C1006   1.207       .  T
C1006      C1007   1.414   1_545  S
C1007      C1008   1.207       .  T
C1009      C1010   1.206       .  T
C1010      C1011   1.414   1_545  S
C1011      C1012   1.207       .  T
C1013      C1014   1.199       .  T
C1015      C1016   1.199       .  T
C1017      C1018   1.207       .  T
C1018      C1019   1.414   1_565  S
C1019      C1020   1.207       .  T
C1021      C1022   1.206       .  T
C1022      C1023   1.414   1_545  S
C1023      C1024   1.207       .  T
C1025      C1026   1.211       .  T
C1026      C1027   1.421       .  S
C1027      C1028   1.211       .  T
C1029      C1030   1.208       .  T
C1031      C1032   1.208       .  T
C1033      C1034   1.210       .  T
C1035      C1036   1.210       .  T
C1037      C1038   1.210       .  T
C1038      C1039   1.420       .  S
C1039      C1040   1.210       .  T
C1041      C1042   1.208       .  T
C1042      C1043   1.415       .  S
C1043      C1044   1.208       .  T
C1045      C1046   1.211       .  T
C1047      C1048   1.211       .  T
C1049      C1050   1.210       .  T
C1051      C1052   1.210       .  T
C1053      C1054   1.207       .  T
C1054      C1055   1.414       .  S
C1055      C1056   1.207       .  T
C1057      C1058   1.206       .  T
C1058      C1059   1.414       .  S
C1059      C1060   1.207       .  T
C1061      C1062   1.198       .  T
C1063      C1064   1.198       .  T
C1065      C1066   1.210       .  T
C1066      C1067   1.420       .  S
C1067      C1068   1.210       .  T
C1069      C1070   1.207       .  T
C1070      C1071   1.414       .  S
C1071      C1072   1.207       .  T
C1073      C1074   1.207       .  T
C1074      C1075   1.414       .  S
C1075      C1076   1.206       .  T
C1077      C1078   1.207       .  T
C1078      C1079   1.414       .  S
C1079      C1080   1.207       .  T
C1081      C1082   1.211       .  T
C1083      C1084   1.211       .  T
C1085      C1086   1.199       .  T
C1087      C1088   1.199       .  T
