geometry optimzed in LAMMPS
_audit_creation_date              2020-12-01 
_audit_creation_method            'lammps2cif' 
_symmetry_space_group_name_H-M    'P1' 
_symmetry_Int_Tables_number       1 
_symmetry_cell_setting            triclinic 
loop_ 
_symmetry_equiv_pos_as_xyz 
  x,y,z 
_cell_length_a                    25.96959021 
_cell_length_b                    36.06342363132761 
_cell_length_c                    47.332806082031105 
_cell_angle_alpha                 89.86707726623646 
_cell_angle_beta                  89.6234345389776 
_cell_angle_gamma                 90.3562585268025 
loop_ 
_atom_site_label 
_atom_site_type_symbol 
_atom_site_fract_x 
_atom_site_fract_y 
_atom_site_fract_z 
_atom_site_charge 
O1          O  0.30780458  0.85054859  0.40300890    -0.85900
O2          O  0.25984012  0.91124378  0.38331825    -0.82900
C3          C  0.25337325  0.94569366  0.38151965     0.97600
O4          O  0.29091429  0.96706632  0.37601638    -0.83000
O5          O  0.36551071  0.96838534  0.41802582    -0.85600
C6          C  0.40378204  0.95867052  0.43238217     1.02100
O7          O  0.43199841  0.93279365  0.42406523    -0.78400
O8          O  0.36489059  0.87630769  0.43125270    -0.78600
C9          C  0.32416560  0.85772196  0.42796584     1.02000
O10         O  0.36716707  0.84825306  0.34732694    -0.85900
O11         O  0.31306037  0.91100440  0.32935973    -0.83000
C12         C  0.33878679  0.93877961  0.31989565     0.97600
O13         O  0.37012007  0.95571577  0.33544666    -0.83000
O14         O  0.44494809  0.96130458  0.37514808    -0.85600
C15         C  0.47946787  0.93695616  0.37103192     1.02100
O16         O  0.46853602  0.90278455  0.37351080    -0.78400
O17         O  0.40997511  0.83863564  0.38581125    -0.78600
C18         C  0.40054417  0.83024605  0.36075627     1.02000
Cr19       Cr  0.31624657  0.88199915  0.36666940     1.93700
Cr20       Cr  0.36746678  0.95901914  0.37663456     1.93200
Cr21       Cr  0.41464301  0.88907069  0.40168468     1.39100
O22         O  0.36559482  0.91012628  0.38130767    -1.23600
O23         O  0.68708091  0.62292351  0.39996086    -0.85900
O24         O  0.71449350  0.56836859  0.36305914    -0.82900
C25         C  0.72722572  0.54248029  0.37980287     0.97600
O26         O  0.69339769  0.52619591  0.39476937    -0.83000
O27         O  0.59746949  0.51332696  0.42216576    -0.85600
C28         C  0.59431977  0.53434156  0.44346218     1.02100
O29         O  0.60379932  0.56815821  0.44080487    -0.78400
O30         O  0.61278980  0.63673418  0.41810204    -0.78600
C31         C  0.66110504  0.63511925  0.42057830     1.02000
O32         O  0.60168662  0.64545507  0.36187237    -0.85900
O33         O  0.62540576  0.58225874  0.32853433    -0.83000
C34         C  0.62959978  0.54797095  0.32255821     0.97600
O35         O  0.64171102  0.52502411  0.34163704    -0.83000
O36         O  0.54876354  0.51946700  0.36917184    -0.85600
C37         C  0.51095494  0.52886148  0.38440137     1.02100
O38         O  0.51702170  0.55181776  0.40436761    -0.78400
O39         O  0.53305401  0.61755170  0.37863079    -0.78600
C40         C  0.55290612  0.64399084  0.36506571     1.02000
Cr41       Cr  0.65426792  0.60321035  0.36456797     1.93700
Cr42       Cr  0.62057566  0.52458132  0.38229698     1.93200
Cr43       Cr  0.56984301  0.59231341  0.40889821     1.39100
O44         O  0.61450324  0.57329885  0.38491778    -1.23600
O45         O  0.28385855  0.11539083  0.08852120    -0.85900
O46         O  0.25611428  0.06093778  0.12629822    -0.82900
C47         C  0.24995962  0.03337761  0.10995479     0.97600
O48         O  0.28794220  0.01940170  0.09722430    -0.83000
O49         O  0.38710639  0.00978460  0.07625886    -0.85600
C50         C  0.38869650  0.02846626  0.05369037     1.02100
O51         O  0.37705792  0.06207545  0.05411574    -0.78400
O52         O  0.35874826  0.13192593  0.07199040    -0.78600
C53         C  0.31086021  0.12819076  0.06833383     1.02000
O54         O  0.36073065  0.14506945  0.12938373    -0.85900
O55         O  0.33636001  0.08275699  0.16481126    -0.83000
C56         C  0.33220401  0.04871949  0.17188981     0.97600
O57         O  0.32764465  0.02422735  0.15300872    -0.83000
O58         O  0.42629060  0.02349480  0.13090395    -0.85600
C59         C  0.46465804  0.03360773  0.11620800     1.02100
O60         O  0.45880903  0.05436081  0.09483774    -0.78400
O61         O  0.43397315  0.12096544  0.11586832    -0.78600
C62         C  0.40980295  0.14666144  0.12770737     1.02000
Cr63       Cr  0.31255910  0.09972348  0.12623887     1.93700
Cr64       Cr  0.35692430  0.02278675  0.11397355     1.93200
Cr65       Cr  0.40384034  0.09103895  0.08584257     1.39100
O66         O  0.35826198  0.07132892  0.10915886    -1.23600
O67         O  0.67917736  0.37545553  0.09338358    -0.85900
O68         O  0.69951130  0.43068498  0.13114946    -0.82900
C69         C  0.70677491  0.45855760  0.11504743     0.97600
O70         O  0.66967696  0.47279330  0.10194059    -0.83000
O71         O  0.57414136  0.48229314  0.07786205    -0.85600
C72         C  0.57574882  0.46509739  0.05477823     1.02100
O73         O  0.58833555  0.43163582  0.05436947    -0.78400
O74         O  0.60891433  0.36135149  0.07058658    -0.78600
C75         C  0.65752255  0.36338224  0.07135309     1.02000
O76         O  0.59693782  0.34522391  0.13051278    -0.85900
O77         O  0.61405440  0.40688935  0.16689538    -0.83000
C78         C  0.61580272  0.44075158  0.17430960     0.97600
O79         O  0.62240429  0.46552527  0.15578473    -0.83000
O80         O  0.52736751  0.46462910  0.13009288    -0.85600
C81         C  0.49166462  0.45494630  0.11361843     1.02100
O82         O  0.50109037  0.43464367  0.09237919    -0.78400
O83         O  0.52625472  0.36696308  0.11179963    -0.78600
C84         C  0.54877257  0.34245868  0.12584462     1.02000
Cr85       Cr  0.64394541  0.39111252  0.12921468     1.93700
Cr86       Cr  0.59892060  0.46755885  0.11600346     1.93200
Cr87       Cr  0.55942770  0.39988960  0.08431166     1.39100
O88         O  0.60036594  0.41920824  0.11012625    -1.23600
O89         O  0.84560264  0.86205134  0.06895797    -0.85900
O90         O  0.87634052  0.93180271  0.05551443    -0.82900
C91         C  0.89013921  0.96509619  0.05732027     0.97600
O92         O  0.88976937  0.98102523  0.08086430    -0.83000
O93         O  0.79050924  0.97331021  0.10172503    -0.85600
C94         C  0.75165848  0.95983989  0.11426775     1.02100
O95         O  0.75595809  0.93148013  0.12997800    -0.78400
O96         O  0.77477936  0.87653224  0.09178617    -0.78600
C97         C  0.79690330  0.86397102  0.06993569     1.02000
O98         O  0.92405295  0.86079325  0.11273620    -0.85900
O99         O  0.95774252  0.92928271  0.09659117    -0.83000
C100        C  0.96600868  0.94981498  0.11787844     0.97600
O101        O  0.92919515  0.96035800  0.13347113    -0.83000
O102        O  0.83083557  0.96305643  0.15637979    -0.85600
C103        C  0.83439268  0.93772623  0.17456964     1.02100
O104        O  0.83619255  0.90411788  0.16663701    -0.78400
O105        O  0.84894292  0.84313905  0.12940962    -0.78600
C106        C  0.89647701  0.83718564  0.12535742     1.02000
Cr107      Cr  0.89757705  0.89732197  0.08552327     1.93700
Cr108      Cr  0.85941950  0.96555388  0.11754238     1.93200
Cr109      Cr  0.80784034  0.89045383  0.12828769     1.39100
O110        O  0.85534771  0.91740467  0.11057805    -1.23600
O111        O  0.10345622  0.63418463  0.07071663    -0.85900
O112        O  0.06870046  0.56609293  0.05440127    -0.82900
C113        C  0.05840093  0.53202379  0.05544366     0.97600
O114        O  0.06592852  0.51385528  0.07774866    -0.83000
O115        O  0.16750229  0.52097313  0.09520679    -0.85600
C116        C  0.20698718  0.53380019  0.10720086     1.02100
O117        O  0.20325145  0.56114803  0.12375909    -0.78400
O118        O  0.17849538  0.61542447  0.08563371    -0.78600
C119        C  0.15104782  0.62901353  0.06622499     1.02000
O120        O  0.03347829  0.62984917  0.11886643    -0.92300
O121        O  0.99693924  0.56363608  0.09990552    -0.83000
C122        C  0.99216249  0.54008831  0.11964959     0.97600
O123        O  0.03117554  0.52852153  0.13275098    -0.83000
O124        O  0.13108864  0.52842993  0.15194948    -0.85600
C125        C  0.12885405  0.55323724  0.17069599     1.02100
O126        O  0.12822984  0.58728964  0.16346680    -0.78400
O127        O  0.11129458  0.64966910  0.12736547    -0.78600
C128        C  0.06305142  0.65476182  0.12782847     1.02000
Cr129      Cr  0.05432532  0.59708051  0.08770164     1.93700
Cr130      Cr  0.09956289  0.52673357  0.11392851     1.93200
Cr131      Cr  0.15145324  0.60188430  0.12410711     1.39100
O132        O  0.10130981  0.57525427  0.10868978    -1.23600
O133        O  0.85692691  0.11058949  0.43333834    -0.85900
O134        O  0.91906957  0.05115340  0.43049314    -0.82900
C135        C  0.88854986  0.02478971  0.43577864     0.97600
O136        O  0.85412101  0.01559000  0.41855293    -0.83000
O137        O  0.79065241  0.01895932  0.37146579    -0.85600
C138        C  0.75289617  0.03977532  0.37680259     1.02100
O139        O  0.76020531  0.07366564  0.38164666    -0.78400
O140        O  0.80628550  0.13564316  0.40161598    -0.78600
C141        C  0.81732304  0.12892521  0.42738271     1.02000
O142        O  0.91453444  0.14529915  0.38873942    -0.85900
O143        O  0.96926365  0.08012285  0.38189291    -0.83000
C144        C  0.97935136  0.04597578  0.37994528     0.97600
O145        O  0.94351919  0.02203000  0.38233940    -0.83000
O146        O  0.87894929  0.03200017  0.33726964    -0.85600
C147        C  0.84764878  0.04773816  0.32103474     1.02100
O148        O  0.81956042  0.07421832  0.32997383    -0.78400
O149        O  0.87114942  0.13768883  0.34976861    -0.78600
C150        C  0.90390652  0.15545009  0.36403841     1.02000
Cr151      Cr  0.91111200  0.09542933  0.40654774     1.93700
Cr152      Cr  0.86657207  0.02630367  0.37794575     1.93200
Cr153      Cr  0.81850804  0.10333828  0.36687865     1.39100
O154        O  0.86523816  0.07514413  0.38348519    -1.23600
O155        O  0.13157793  0.34958968  0.41377935    -0.85900
O156        O  0.09875568  0.41340533  0.43738278    -0.82900
C157        C  0.08817739  0.44710057  0.43988480     0.97600
O158        O  0.08647695  0.46812055  0.41867872    -0.83000
O159        O  0.18075359  0.46910795  0.39236675    -0.85600
C160        C  0.21895298  0.45850871  0.37804287     1.02100
O161        O  0.21314720  0.43391271  0.35924608    -0.78400
O162        O  0.19988532  0.37371422  0.39344411    -0.78600
C163        C  0.17964880  0.35586926  0.41368382     1.02000
O164        O  0.04928010  0.35657557  0.37223597    -0.85900
O165        O  0.01391321  0.41795337  0.39919745    -0.83000
C166        C  0.00208521  0.44331209  0.38186761     0.97600
O167        O  0.03637170  0.45904664  0.36683670    -0.83000
O168        O  0.13025931  0.46698020  0.33863146    -0.85600
C169        C  0.12876660  0.44396717  0.31853166     1.02100
O170        O  0.13082330  0.40937351  0.32361115    -0.78400
O171        O  0.12476181  0.34193990  0.35524569    -0.78600
C172        C  0.07727487  0.33451756  0.35872626     1.02000
Cr173      Cr  0.07651793  0.38628825  0.40361644     1.93700
Cr174      Cr  0.10937399  0.46193854  0.37911824     1.93200
Cr175      Cr  0.16319391  0.39103873  0.35926239     1.39100
O176        O  0.11578836  0.41306610  0.38047671    -1.23600
O177        O  0.61686532  0.11694257  0.56425135    -0.85900
O178        O  0.54095870  0.06497931  0.56433684    -0.82900
C179        C  0.56607389  0.03716254  0.55679235     0.97600
O180        O  0.60111708  0.02477795  0.57226632    -0.83000
O181        O  0.66858219  0.01851158  0.61610781    -0.85600
C182        C  0.70901564  0.03808987  0.61521886     1.02100
O183        O  0.70736056  0.07284177  0.61758674    -0.78400
O184        O  0.66819264  0.13732742  0.59782049    -0.78600
C185        C  0.65833380  0.13237296  0.57156126     1.02000
O186        O  0.56714517  0.15392807  0.60881667    -0.85900
O187        O  0.49869866  0.09282715  0.61381669    -0.83000
C188        C  0.48467882  0.05908305  0.61537195     0.97600
O189        O  0.51712233  0.03312452  0.61218282    -0.83000
O190        O  0.58612534  0.02897643  0.65508235    -0.85600
C191        C  0.61394830  0.04455282  0.67324347     1.02100
O192        O  0.64241259  0.07213272  0.66672364    -0.78400
O193        O  0.59702848  0.13695743  0.64932252    -0.78600
C194        C  0.56951013  0.15835912  0.63496929     1.02000
Cr195      Cr  0.55960428  0.10533231  0.58989651     1.93700
Cr196      Cr  0.59401103  0.03051170  0.61376496     1.93200
Cr197      Cr  0.64959897  0.10347246  0.63143364     1.39100
O198        O  0.60155614  0.07942261  0.61204638    -1.23600
O199        O  0.35489632  0.37969580  0.55607676    -0.85900
O200        O  0.42432146  0.43593540  0.55904046    -0.82900
C201        C  0.39741607  0.46401484  0.55419672     0.97600
O202        O  0.36230994  0.47351447  0.57104266    -0.83000
O203        O  0.29579444  0.47011778  0.61651109    -0.85600
C204        C  0.25667751  0.45019216  0.61189934     1.02100
O205        O  0.26018687  0.41552358  0.60919131    -0.78400
O206        O  0.30499092  0.35297794  0.58804492    -0.78600
C207        C  0.31618271  0.36002869  0.56218372     1.02000
O208        O  0.40672695  0.34140982  0.59928957    -0.85900
O209        O  0.46882658  0.40388268  0.60702914    -0.83000
C210        C  0.48109511  0.43756165  0.61013444     0.97600
O211        O  0.44728768  0.46267050  0.60861323    -0.83000
O212        O  0.37967036  0.45591644  0.65272613    -0.85600
C213        C  0.34816857  0.43979260  0.66899068     1.02100
O214        O  0.31937661  0.41377792  0.65995186    -0.78400
O215        O  0.37166720  0.35208815  0.64013381    -0.78600
C216        C  0.40380362  0.33470248  0.62526454     1.02000
Cr217      Cr  0.41002709  0.39167614  0.58238326     1.93700
Cr218      Cr  0.37066194  0.46147863  0.61173920     1.93200
Cr219      Cr  0.31804512  0.38520304  0.62306219     1.39100
O220        O  0.36568433  0.41299947  0.60588264    -1.23600
O221        O  0.61119065  0.84992841  0.92152959    -0.85900
O222        O  0.59706399  0.91957334  0.94109956    -0.82900
C223        C  0.58591271  0.95325486  0.94217455     0.97600
O224        O  0.58384343  0.97194080  0.91969411    -0.83000
O225        O  0.67563578  0.96175597  0.88854348    -0.85600
C226        C  0.70849499  0.94552328  0.87303077     1.02100
O227        O  0.69477454  0.91890424  0.85735956    -0.78400
O228        O  0.67849181  0.86497226  0.89633388    -0.78600
C229        C  0.65950520  0.85303176  0.91927896     1.02000
O230        O  0.52278642  0.85992383  0.88532607    -0.85900
O231        O  0.50390424  0.92638185  0.90828116    -0.83000
C232        C  0.49134205  0.94742221  0.88802652     0.97600
O233        O  0.52525222  0.95947522  0.87081942    -0.83000
O234        O  0.61558213  0.95747297  0.83883169    -0.85600
C235        C  0.60746218  0.93327969  0.82012775     1.02100
O236        O  0.60378017  0.89924882  0.82702945    -0.78400
O237        O  0.58982746  0.83719852  0.86330208    -0.78600
C238        C  0.54218249  0.83584181  0.86947807     1.02000
Cr239      Cr  0.56180138  0.89032758  0.91195975     1.93700
Cr240      Cr  0.60048372  0.95895632  0.87986357     1.93200
Cr241      Cr  0.63834394  0.88161745  0.86263641     1.39100
O242        O  0.59954548  0.91021488  0.88447906    -1.23600
O243        O  0.35628701  0.62869645  0.91607456    -0.85900
O244        O  0.37741436  0.55915643  0.93461857    -0.82900
C245        C  0.38626819  0.52499386  0.93503124     0.97600
O246        O  0.38245923  0.50613053  0.91271041    -0.83000
O247        O  0.28386434  0.51661916  0.89340234    -0.85600
C248        C  0.24591554  0.53082954  0.88116123     1.02100
O249        O  0.25219299  0.55751495  0.86395502    -0.78400
O250        O  0.28052894  0.61227639  0.90077921    -0.78600
C251        C  0.30821352  0.62587324  0.92012026     1.02000
O252        O  0.42913389  0.61724102  0.87023084    -0.85900
O253        O  0.45461505  0.55080172  0.89182756    -0.83000
C254        C  0.45947225  0.52904535  0.87104276     0.97600
O255        O  0.42070191  0.51871196  0.85716767    -0.83000
O256        O  0.32205312  0.52093199  0.83662796    -0.85600
C257        C  0.32905735  0.54532147  0.81773652     1.02100
O258        O  0.33245087  0.57929228  0.82470413    -0.78400
O259        O  0.35489713  0.64133208  0.85924309    -0.78600
C260        C  0.40378683  0.64294135  0.85925643     1.02000
Cr261      Cr  0.40100678  0.58773851  0.90160848     1.93700
Cr262      Cr  0.35198945  0.51914275  0.87532481     1.93200
Cr263      Cr  0.30818222  0.59609066  0.86310830     1.39100
O264        O  0.35406630  0.56772269  0.87981076    -1.23600
O265        O  0.17719048  0.87457294  0.58809037    -0.85900
O266        O  0.20265094  0.92918953  0.62596819    -0.82900
C267        C  0.21325111  0.95614101  0.60974185     0.97600
O268        O  0.17826079  0.97127395  0.59535735    -0.83000
O269        O  0.07984267  0.98083134  0.57060490    -0.85600
C270        C  0.07665000  0.96011477  0.54920520     1.02100
O271        O  0.08646525  0.92642053  0.55132499    -0.78400
O272        O  0.10268544  0.85811470  0.57122570    -0.78600
C273        C  0.15096790  0.86096574  0.56809578     1.02000
O274        O  0.09825833  0.84667755  0.62747409    -0.85900
O275        O  0.11870520  0.91058699  0.66243764    -0.83000
C276        C  0.12175025  0.94498856  0.66878574     0.97600
O277        O  0.12953916  0.96889104  0.64958561    -0.83000
O278        O  0.03510464  0.97192993  0.62456840    -0.85600
C279        C  0.99673324  0.96156767  0.61035379     1.02100
O280        O  0.00187978  0.93771230  0.59087250    -0.78400
O281        O  0.02499830  0.87038556  0.61431891    -0.78600
C282        C  0.04960429  0.84411970  0.62521466     1.02000
Cr283      Cr  0.14585567  0.89181417  0.62491071     1.93700
Cr284      Cr  0.10601039  0.96938618  0.60956844     1.93200
Cr285      Cr  0.05710197  0.89973241  0.58366286     1.39100
O286        O  0.10240438  0.92034549  0.60646348    -1.23600
O287        O  0.79721161  0.61463114  0.58384845    -0.85900
O288        O  0.76527258  0.56336246  0.62289488    -0.82900
C289        C  0.75443898  0.53604022  0.60720415     0.97600
O290        O  0.78933362  0.51859300  0.59440027    -0.83000
O291        O  0.88528569  0.50183916  0.57226749    -0.85600
C292        C  0.89098848  0.51970514  0.54961675     1.02100
O293        O  0.88571619  0.55422930  0.54924314    -0.78400
O294        O  0.87328679  0.62548807  0.56582732    -0.78600
C295        C  0.82488485  0.62545678  0.56324695     1.02000
O296        O  0.87699434  0.64102685  0.62273529    -0.85900
O297        O  0.85016069  0.58064190  0.65976323    -0.83000
C298        C  0.84396305  0.54687324  0.66726425     0.97600
O299        O  0.83304997  0.52278826  0.64895108    -0.83000
O300        O  0.92942316  0.51354537  0.62554224    -0.85600
C301        C  0.96875311  0.52199144  0.61102832     1.02100
O302        O  0.96574493  0.54406876  0.59025425    -0.78400
O303        O  0.94806814  0.61381378  0.60956151    -0.78600
C304        C  0.92573765  0.64143000  0.62006179     1.02000
Cr305      Cr  0.82563400  0.59808918  0.62133611     1.93700
Cr306      Cr  0.85945213  0.51806308  0.60979476     1.93200
Cr307      Cr  0.91468469  0.58315858  0.58050998     1.39100
O308        O  0.86715526  0.56649516  0.60417441    -1.23600
O309        O  0.17743697  0.11689392  0.90049711    -0.85900
O310        O  0.19937691  0.06564365  0.85941409    -0.82900
C311        C  0.21055433  0.03727694  0.87385440     0.97600
O312        O  0.17564509  0.01992639  0.88737046    -0.83000
O313        O  0.08265336  0.00934569  0.91641572    -0.85600
C314        C  0.08308517  0.02746550  0.93917382     1.02100
O315        O  0.09149209  0.06180268  0.93883248    -0.78400
O316        O  0.10473804  0.13271483  0.91901432    -0.78600
C317        C  0.15250187  0.12857047  0.92173130     1.02000
O318        O  0.09275910  0.14627488  0.86375414    -0.85900
O319        O  0.11334755  0.08604370  0.82575007    -0.83000
C320        C  0.11462148  0.05205899  0.81814226     0.97600
O321        O  0.11927003  0.02684370  0.83646442    -0.83000
O322        O  0.02630988  0.02273964  0.86625581    -0.85600
C323        C  0.99153355  0.03360818  0.88324254     1.02100
O324        O  0.00324121  0.05335944  0.90420123    -0.78400
O325        O  0.02238927  0.12028194  0.88040060    -0.78600
C326        C  0.04409064  0.14671559  0.86761368     1.02000
Cr327      Cr  0.14234958  0.10216799  0.86370151     1.93700
Cr328      Cr  0.10123515  0.02346401  0.87704203     1.93200
Cr329      Cr  0.05878362  0.09071585  0.90868428     1.39100
O330        O  0.10027664  0.07199992  0.88265290    -1.23600
O331        O  0.77249532  0.37379963  0.89608458    -0.85900
O332        O  0.75417217  0.42839122  0.85786077    -0.82900
C333        C  0.74574925  0.45546566  0.87434022     0.97600
O334        O  0.78186923  0.47003264  0.88812406    -0.83000
O335        O  0.87572929  0.48137907  0.91319539    -0.85600
C336        C  0.87208410  0.46445683  0.93640702     1.02100
O337        O  0.86129245  0.43053637  0.93673541    -0.78400
O338        O  0.84122302  0.36018457  0.92023749    -0.78600
C339        C  0.79270030  0.36231568  0.91869540     1.02000
O340        O  0.85619957  0.34412647  0.86052800    -0.85900
O341        O  0.84154758  0.40610675  0.82370486    -0.83000
C342        C  0.83952098  0.44004763  0.81633943     0.97600
O343        O  0.83083167  0.46442702  0.83475047    -0.83000
O344        O  0.92417420  0.46436757  0.86130429    -0.85600
C345        C  0.95955801  0.45462586  0.87779353     1.02100
O346        O  0.94979805  0.43463084  0.89930773    -0.78400
O347        O  0.92602736  0.36644630  0.88009094    -0.78600
C348        C  0.90399605  0.34163781  0.86599359     1.02000
Cr349      Cr  0.80949371  0.38958845  0.86080996     1.93700
Cr350      Cr  0.85274912  0.46635957  0.87478247     1.93200
Cr351      Cr  0.89149876  0.39915803  0.90704995     1.39100
O352        O  0.85171998  0.41802820  0.88061985    -1.23600
C353        C  0.93542755  0.30888035  0.85789759    -0.05800
C354        C  0.98934837  0.31292884  0.85585408    -0.05700
C355        C  0.02145415  0.28202689  0.85423647    -0.23900
C356        C  0.00054115  0.24616601  0.85495632     0.18300
C357        C  0.94631460  0.24163183  0.85552664     0.15600
C358        C  0.91401257  0.27301140  0.85659392    -0.18900
C359        C  0.92547204  0.20574957  0.85666032    -0.20700
C360        C  0.95772306  0.17495535  0.85887466    -0.13300
C361        C  0.01173032  0.17912219  0.85969980     0.03400
C362        C  0.03291081  0.21491730  0.85668758    -0.25400
H363        H  0.00697011  0.34020131  0.85665760     0.08500
H364        H  0.06282307  0.28621420  0.85364427     0.12100
H365        H  0.87263635  0.26940065  0.85845859     0.12000
H366        H  0.88410414  0.20153314  0.85698686     0.11800
H367        H  0.94015955  0.14776289  0.86097205     0.12300
H368        H  0.07434121  0.21869211  0.85751454     0.14200
C369        C  0.84476305  0.45309120  0.78646928    -0.05800
C370        C  0.84072014  0.42874885  0.76351197    -0.05700
C371        C  0.84120346  0.44249336  0.73572450    -0.23900
C372        C  0.84580661  0.48082858  0.73038124     0.18300
C373        C  0.85136730  0.50553096  0.75313775     0.15600
C374        C  0.85101227  0.49153451  0.78091812    -0.18900
C375        C  0.85620436  0.54385838  0.74772319    -0.20700
C376        C  0.85442454  0.55771839  0.71995926    -0.13300
C377        C  0.84773370  0.53349855  0.69710648     0.03400
C378        C  0.84417155  0.49488971  0.70268411    -0.25400
H379        H  0.83587003  0.39925616  0.76704809     0.08500
H380        H  0.83710822  0.42315385  0.71838625     0.12100
H381        H  0.85471154  0.51084922  0.79830823     0.12000
H382        H  0.86074786  0.56319370  0.76502760     0.11800
H383        H  0.85764943  0.58731295  0.71641464     0.12300
H384        H  0.83959377  0.47548376  0.68541873     0.14200
C385        C  0.11813390  0.95891806  0.69852473    -0.05800
C386        C  0.12103617  0.93473305  0.72169606    -0.05700
C387        C  0.12015107  0.94855243  0.74937773    -0.23900
C388        C  0.11607442  0.98686424  0.75453315     0.18300
C389        C  0.11224965  0.01161817  0.73164156     0.15600
C390        C  0.11328509  0.99752658  0.70382539    -0.18900
C391        C  0.10801258  0.04996777  0.73706698    -0.20700
C392        C  0.10827170  0.06366465  0.76495277    -0.13300
C393        C  0.11264852  0.03925984  0.78797304     0.03400
C394        C  0.11616193  0.00072596  0.78226741    -0.25400
H395        H  0.12483243  0.90516944  0.71842249     0.08500
H396        H  0.12304455  0.92919641  0.76683798     0.12100
H397        H  0.11063840  0.01676875  0.68628050     0.12000
H398        H  0.10489967  0.06943095  0.71970034     0.11800
H399        H  0.10539969  0.09322971  0.76847128     0.12300
H400        H  0.11945511  0.98108340  0.79951893     0.14200
C401        C  0.95695999  0.67528071  0.62657802    -0.05800
C402        C  0.01089118  0.67455235  0.62301653    -0.05700
C403        C  0.04044924  0.70703943  0.62472145    -0.23900
C404        C  0.01689660  0.74124115  0.62987501     0.18300
C405        C  0.96306027  0.74235499  0.63451855     0.15600
C406        C  0.93349897  0.70938197  0.63311836    -0.18900
C407        C  0.93943292  0.77671617  0.63912571    -0.20700
C408        C  0.96823841  0.80966095  0.63764617    -0.13300
C409        C  0.02155302  0.80904726  0.63213895     0.03400
C410        C  0.04589368  0.77447310  0.62913358    -0.25400
H411        H  0.03030346  0.64889875  0.61797687     0.08500
H412        H  0.08163705  0.70553243  0.62111972     0.12100
H413        H  0.89204161  0.71061667  0.63572784     0.12000
H414        H  0.89825638  0.77825405  0.64277765     0.11800
H415        H  0.94845386  0.83584413  0.63995029     0.12300
H416        H  0.08678001  0.77353281  0.62440868     0.14200
C417        C  0.69431394  0.47164609  0.87669380    -0.05800
C418        C  0.68419018  0.49660408  0.89873195    -0.05700
C419        C  0.63664501  0.51356660  0.90095358    -0.23900
C420        C  0.59839418  0.50579181  0.88120891     0.18300
C421        C  0.60771019  0.48068987  0.85891467     0.15600
C422        C  0.65590870  0.46363399  0.85677425    -0.18900
C423        C  0.56846665  0.47302559  0.83945714    -0.20700
C424        C  0.52002747  0.48939429  0.84265889    -0.13300
C425        C  0.51076713  0.51388094  0.86514463     0.03400
C426        C  0.55058351  0.52238830  0.88392336    -0.25400
H427        H  0.71314696  0.50309606  0.91436394     0.08500
H428        H  0.62972977  0.53266907  0.91820270     0.12100
H429        H  0.66361416  0.44454639  0.83962276     0.12000
H430        H  0.57492915  0.45394446  0.82216533     0.11800
H431        H  0.48974390  0.48247712  0.82792665     0.12300
H432        H  0.54408227  0.54120675  0.90141970     0.14200
C433        C  0.19466566  0.51445561  0.88517771    -0.05800
C434        C  0.18351026  0.49258843  0.90905092    -0.05700
C435        C  0.13533872  0.47573189  0.91208397    -0.23900
C436        C  0.09807158  0.48023082  0.89110533     0.18300
C437        C  0.10931476  0.50197289  0.86692865     0.15600
C438        C  0.15735942  0.51915994  0.86424484    -0.18900
C439        C  0.07231933  0.50623756  0.84582420    -0.20700
C440        C  0.02394069  0.48985141  0.84896526    -0.13300
C441        C  0.01199639  0.46891376  0.87322539     0.03400
C442        C  0.04955534  0.46372288  0.89404117    -0.25400
H443        H  0.21200669  0.48861314  0.92537029     0.08500
H444        H  0.12729044  0.45914787  0.93073868     0.12100
H445        H  0.16604758  0.53560387  0.84557551     0.12000
H446        H  0.08055765  0.52262697  0.82709370     0.11800
H447        H  0.99558488  0.49411181  0.83261220     0.12300
H448        H  0.04070971  0.44765566  0.91286419     0.14200
C449        C  0.93637768  0.02340249  0.88032988    -0.05800
C450        C  0.89924001  0.04596251  0.89356499    -0.05700
C451        C  0.84746394  0.03560571  0.89448828    -0.23900
C452        C  0.83139113  0.00230172  0.88226753     0.18300
C453        C  0.86791884  0.97976423  0.86818431     0.15600
C454        C  0.92023069  0.99056560  0.86708783    -0.18900
C455        C  0.85155526  0.94645472  0.85596414    -0.20700
C456        C  0.79988786  0.93555432  0.85776818    -0.13300
C457        C  0.76326459  0.95761830  0.87190581     0.03400
C458        C  0.77947135  0.99109125  0.88412744    -0.25400
H459        H  0.91043925  0.07162223  0.90374501     0.08500
H460        H  0.82013680  0.05340203  0.90519285     0.12100
H461        H  0.94841472  0.97285118  0.85697924     0.12000
H462        H  0.87874371  0.92870835  0.84510757     0.11800
H463        H  0.78866089  0.90956289  0.84812199     0.12300
H464        H  0.75175229  0.00848308  0.89493671     0.14200
C465        C  0.26507856  0.02463288  0.87381533    -0.05800
C466        C  0.30334474  0.04674898  0.86071014    -0.05700
C467        C  0.35479307  0.03565378  0.86002612    -0.23900
C468        C  0.36945879  0.00212863  0.87245563     0.18300
C469        C  0.33152374  0.97949242  0.88562705     0.15600
C470        C  0.27962129  0.99081410  0.88621780    -0.18900
C471        C  0.34630496  0.94607855  0.89824054    -0.20700
C472        C  0.39807896  0.93566624  0.89841466    -0.13300
C473        C  0.43632605  0.95813857  0.88569496     0.03400
C474        C  0.42149943  0.99117894  0.87231399    -0.25400
H475        H  0.29359114  0.07294745  0.85095245     0.08500
H476        H  0.38317585  0.05345205  0.84987475     0.12100
H477        H  0.25073111  0.97337276  0.89630665     0.12000
H478        H  0.31794697  0.92822495  0.90834412     0.11800
H479        H  0.40829087  0.90991013  0.90871361     0.12300
H480        H  0.45053088  0.00885535  0.86257922     0.14200
C481        C  0.43236959  0.67635697  0.84968460    -0.05800
C482        C  0.48493801  0.67354461  0.84258032    -0.05700
C483        C  0.51630878  0.70514064  0.84113066    -0.23900
C484        C  0.49591998  0.74006576  0.84736994     0.18300
C485        C  0.44234404  0.74341829  0.85245043     0.15600
C486        C  0.41071405  0.71163432  0.85296309    -0.18900
C487        C  0.42193235  0.77810584  0.85917144    -0.20700
C488        C  0.45455257  0.80851471  0.86302777    -0.13300
C489        C  0.50831780  0.80507514  0.85991781     0.03400
C490        C  0.52855452  0.77109142  0.85070188    -0.25400
H491        H  0.50243558  0.64661813  0.83974532     0.08500
H492        H  0.55712544  0.70194576  0.83689683     0.12100
H493        H  0.37033169  0.71410242  0.85865479     0.12000
H494        H  0.38095638  0.78133584  0.86289728     0.11800
H495        H  0.43770039  0.83452009  0.86961248     0.12300
H496        H  0.56985860  0.76805900  0.84814899     0.14200
C497        C  0.70105632  0.52310254  0.60587107    -0.05800
C498        C  0.66098864  0.54892827  0.60664134    -0.05700
C499        C  0.61002611  0.53693844  0.60808573    -0.23900
C500        C  0.59862288  0.49897285  0.60937507     0.18300
C501        C  0.63870273  0.47268690  0.60850113     0.15600
C502        C  0.68985377  0.48496816  0.60637493    -0.18900
C503        C  0.62680577  0.43472104  0.61002395    -0.20700
C504        C  0.57548034  0.42291235  0.61175763    -0.13300
C505        C  0.53550104  0.44897791  0.61218421     0.03400
C506        C  0.54763616  0.48698382  0.61138599    -0.25400
H507        H  0.66923567  0.57840270  0.60631770     0.08500
H508        H  0.57955988  0.55736552  0.60861689     0.12100
H509        H  0.72095620  0.46501288  0.60618774     0.12000
H510        H  0.65711132  0.41418771  0.60948131     0.11800
H511        H  0.56710496  0.39349957  0.61205927     0.12300
H512        H  0.51724453  0.50750455  0.61152305     0.14200
C513        C  0.01868768  0.50463189  0.61670529    -0.05800
C514        C  0.02153219  0.46862586  0.62791412    -0.05700
C515        C  0.06889139  0.45043491  0.62921421    -0.23900
C516        C  0.11393325  0.46821868  0.61956730     0.18300
C517        C  0.11139667  0.50510218  0.60948749     0.15600
C518        C  0.06391952  0.52293646  0.60806334    -0.18900
C519        C  0.15624043  0.52341608  0.60046137    -0.20700
C520        C  0.20334420  0.50525072  0.60114898    -0.13300
C521        C  0.20624562  0.46831399  0.61042390     0.03400
C522        C  0.16139613  0.44983626  0.61964425    -0.25400
H523        H  0.98692505  0.45401280  0.63452743     0.08500
H524        H  0.07015105  0.42229929  0.63723496     0.12100
H525        H  0.06198592  0.55088234  0.59961849     0.12000
H526        H  0.15487551  0.55174239  0.59282579     0.11800
H527        H  0.23759967  0.52000076  0.59414346     0.12300
H528        H  0.16364145  0.42155200  0.62733437     0.14200
C529        C  0.33292262  0.53254014  0.78784811    -0.05800
C530        C  0.35053482  0.55606037  0.76610715    -0.05700
C531        C  0.35784772  0.54237634  0.73861795    -0.23900
C532        C  0.34742488  0.50495658  0.73231818     0.18300
C533        C  0.32871508  0.48126427  0.75384060     0.15600
C534        C  0.32177365  0.49511302  0.78132081    -0.18900
C535        C  0.31726649  0.44404978  0.74754969    -0.20700
C536        C  0.32387855  0.43041052  0.72008485    -0.13300
C537        C  0.34309771  0.45347925  0.69850344     0.03400
C538        C  0.35505968  0.49082164  0.70489163    -0.25400
H539        H  0.35969348  0.58480130  0.77047799     0.08500
H540        H  0.37200656  0.56102159  0.72231148     0.12100
H541        H  0.30795550  0.47646434  0.79773052     0.12000
H542        H  0.30273979  0.42553004  0.76385209     0.11800
H543        H  0.31415668  0.40175450  0.71572616     0.12300
H544        H  0.36912806  0.50915770  0.68834008     0.14200
C545        C  0.75918472  0.01966413  0.61158498    -0.05800
C546        C  0.76291966  0.98748256  0.59508088    -0.05700
C547        C  0.81016273  0.96972894  0.59154194    -0.23900
C548        C  0.85427626  0.98338875  0.60500153     0.18300
C549        C  0.85071189  0.01531272  0.62218065     0.15600
C550        C  0.80333106  0.03357375  0.62504415    -0.18900
C551        C  0.89458204  0.02834910  0.63621711    -0.20700
C552        C  0.94169699  0.01026652  0.63293482    -0.13300
C553        C  0.94597730  0.97901276  0.61534659     0.03400
C554        C  0.90185391  0.96565987  0.60152084    -0.25400
H555        H  0.72929088  0.97634601  0.58456398     0.08500
H556        H  0.81214119  0.94523027  0.57838675     0.12100
H557        H  0.80054247  0.05811575  0.63813073     0.12000
H558        H  0.89253668  0.05261836  0.64960799     0.11800
H559        H  0.97505921  0.02123519  0.64377494     0.12300
H560        H  0.90450486  0.94155886  0.58796119     0.14200
C561        C  0.26655657  0.97062169  0.60989441    -0.05800
C562        C  0.30634914  0.94666504  0.61798161    -0.05700
C563        C  0.35604382  0.96004388  0.62213914    -0.23900
C564        C  0.36703118  0.99774164  0.61838942     0.18300
C565        C  0.32779232  0.02228563  0.60992913     0.15600
C566        C  0.27759540  0.00848503  0.60550000    -0.18900
C567        C  0.33967918  0.06008025  0.60623924    -0.20700
C568        C  0.39030123  0.07302973  0.60984714    -0.13300
C569        C  0.42965290  0.04837770  0.61737121     0.03400
C570        C  0.41711175  0.01097146  0.62240118    -0.25400
H571        H  0.29879098  0.91745222  0.62155792     0.08500
H572        H  0.38585028  0.94088860  0.62848837     0.12100
H573        H  0.24697549  0.02726664  0.59967109     0.12000
H574        H  0.31013779  0.07942979  0.59988532     0.11800
H575        H  0.39905792  0.10189058  0.60552748     0.12300
H576        H  0.44698635  0.99158646  0.62830493     0.14200
C577        C  0.60530022  0.94684423  0.79037656    -0.05800
C578        C  0.58816599  0.92477441  0.76787409    -0.05700
C579        C  0.58555312  0.93961139  0.74038163    -0.23900
C580        C  0.60040848  0.97664626  0.73495319     0.18300
C581        C  0.61845630  0.99870176  0.75737747     0.15600
C582        C  0.62061797  0.98380402  0.78467560    -0.18900
C583        C  0.63428148  0.03542091  0.75224783    -0.20700
C584        C  0.63251424  0.05032980  0.72500252    -0.13300
C585        C  0.61421297  0.02903395  0.70239005     0.03400
C586        C  0.59795239  0.99206299  0.70759172    -0.25400
H587        H  0.57626082  0.89633461  0.77157393     0.08500
H588        H  0.57184546  0.92216805  0.72338720     0.12100
H589        H  0.63459702  0.00132157  0.80158088     0.12000
H590        H  0.64835292  0.05259223  0.76932363     0.11800
H591        H  0.64533005  0.07864762  0.72163298     0.12300
H592        H  0.58434868  0.97507449  0.69029181     0.14200
C593        C  0.53841580  0.18816445  0.64751511    -0.05800
C594        C  0.48741994  0.18038567  0.65580402    -0.05700
C595        C  0.45092645  0.20882739  0.65753576    -0.23900
C596        C  0.46478285  0.24542170  0.65052840     0.18300
C597        C  0.51706858  0.25366865  0.64430325     0.15600
C598        C  0.55348612  0.22506783  0.64302145    -0.18900
C599        C  0.53133948  0.28983459  0.63686756    -0.20700
C600        C  0.49384307  0.31680533  0.63316001    -0.13300
C601        C  0.44140808  0.30853052  0.63723203     0.03400
C602        C  0.42702885  0.27316393  0.64719917    -0.25400
H603        H  0.47483567  0.15192002  0.65865804     0.08500
H604        H  0.41122939  0.20178822  0.66244085     0.12100
H605        H  0.59246698  0.23104259  0.63589141     0.12000
H606        H  0.57118911  0.29673719  0.63219400     0.11800
H607        H  0.50572653  0.34376021  0.62547854     0.12300
H608        H  0.38656659  0.26641059  0.64998110     0.14200
C609        C  0.06675519  0.46101768  0.46611579    -0.05800
C610        C  0.07760752  0.49759125  0.47406721    -0.05700
C611        C  0.04340820  0.51665259  0.49134967    -0.23900
C612        C  0.99763271  0.49945356  0.50026880     0.18300
C613        C  0.98792206  0.46185996  0.49369363     0.15600
C614        C  0.02331100  0.44257960  0.47708640    -0.18900
C615        C  0.94222116  0.44471509  0.50303821    -0.20700
C616        C  0.90737726  0.46441079  0.51973113    -0.13300
C617        C  0.91716487  0.50169214  0.52621094     0.03400
C618        C  0.96157993  0.51928504  0.51580560    -0.25400
H619        H  0.11051267  0.51219340  0.46515596     0.08500
H620        H  0.05148336  0.54535475  0.49656708     0.12100
H621        H  0.01434647  0.41456931  0.47028553     0.12000
H622        H  0.93422477  0.41591819  0.49813893     0.11800
H623        H  0.87390689  0.45031555  0.52844016     0.12300
H624        H  0.97005613  0.54775856  0.52165987     0.14200
C625        C  0.21204306  0.34493295  0.43822597    -0.05800
C626        C  0.26602168  0.34586662  0.43566344    -0.05700
C627        C  0.29729329  0.34402954  0.45956273    -0.23900
C628        C  0.27528451  0.34186126  0.48667296     0.18300
C629        C  0.22131386  0.33869283  0.48965517     0.15600
C630        C  0.18997100  0.33970880  0.46534728    -0.18900
C631        C  0.19966835  0.33701784  0.51699594    -0.20700
C632        C  0.23082712  0.34105390  0.54102133    -0.13300
C633        C  0.28419948  0.34661975  0.53814363     0.03400
C634        C  0.30622342  0.34534121  0.51080603    -0.25400
H635        H  0.28414795  0.34978088  0.41518491     0.08500
H636        H  0.33865221  0.34625162  0.45690603     0.12100
H637        H  0.14845317  0.33930610  0.46776547     0.12000
H638        H  0.15837427  0.33443368  0.51977311     0.11800
H639        H  0.21279384  0.34211921  0.56170232     0.12300
H640        H  0.34736900  0.34938110  0.50816793     0.14200
C641        C  0.92881550  0.18968375  0.35320354    -0.05800
C642        C  0.89919235  0.22155726  0.34898901    -0.05700
C643        C  0.92297712  0.25630478  0.34585343    -0.23900
C644        C  0.97687329  0.25967989  0.34668176     0.18300
C645        C  0.00723290  0.22744269  0.34883220     0.15600
C646        C  0.98296616  0.19262618  0.35234442    -0.18900
C647        C  0.06118287  0.23093900  0.34921075    -0.20700
C648        C  0.08461741  0.26610695  0.34973452    -0.13300
C649        C  0.05450423  0.29835388  0.35009354     0.03400
C650        C  0.00066655  0.29482784  0.34728447    -0.25400
H651        H  0.85754780  0.21990728  0.35002528     0.08500
H652        H  0.89913179  0.28073201  0.34406183     0.12100
H653        H  0.00602803  0.16810619  0.35586864     0.12000
H654        H  0.08515019  0.20652300  0.35051797     0.11800
H655        H  0.12602772  0.26799044  0.35195325     0.12300
H656        H  0.97698217  0.31948230  0.34733750     0.14200
C657        C  0.90069934  0.00276597  0.46040926    -0.05800
C658        C  0.88738282  0.01687585  0.48700672    -0.05700
C659        C  0.91999413  0.01148650  0.50995717    -0.23900
C660        C  0.96692483  0.99306221  0.50609015     0.18300
C661        C  0.97857395  0.97663740  0.47974462     0.15600
C662        C  0.94421539  0.98036237  0.45741251    -0.18900
C663        C  0.02572024  0.95866606  0.47565367    -0.20700
C664        C  0.06059285  0.95610875  0.49781061    -0.13300
C665        C  0.04913957  0.97213571  0.52407188     0.03400
C666        C  0.00266026  0.99115297  0.52795839    -0.25400
H667        H  0.85477894  0.03525771  0.48929495     0.08500
H668        H  0.91034197  0.02394317  0.53010632     0.12100
H669        H  0.95507139  0.97040412  0.43660351     0.12000
H670        H  0.03523118  0.94614451  0.45550902     0.11800
H671        H  0.09556508  0.94029591  0.49487042     0.12300
H672        H  0.99288789  0.00240398  0.54853173     0.14200
C673        C  0.78264648  0.14049471  0.45114620    -0.05800
C674        C  0.72969688  0.14537621  0.44657151    -0.05700
C675        C  0.69524855  0.14851540  0.46941565    -0.23900
C676        C  0.71299993  0.14706341  0.49741075     0.18300
C677        C  0.76634253  0.14443919  0.50241086     0.15600
C678        C  0.80078335  0.14111796  0.47930406    -0.18900
C679        C  0.78397650  0.14328919  0.53047595    -0.20700
C680        C  0.74897608  0.14246052  0.55328377    -0.13300
C681        C  0.69561813  0.14265078  0.54854075     0.03400
C682        C  0.67812890  0.14622647  0.52040505    -0.25400
H683        H  0.71445311  0.14463657  0.42532340     0.08500
H684        H  0.65446848  0.15068266  0.46517729     0.12100
H685        H  0.84143762  0.13736310  0.48330094     0.12000
H686        H  0.82477380  0.14148036  0.53476125     0.11800
H687        H  0.76363566  0.13932522  0.57453137     0.12300
H688        H  0.63715824  0.14644807  0.51627462     0.14200
C689        C  0.17278449  0.63605431  0.03735063    -0.05800
C690        C  0.13968122  0.63425266  0.01392548    -0.05700
C691        C  0.15911845  0.63432549  0.98627025    -0.23900
C692        C  0.21225076  0.63684888  0.98119300     0.18300
C693        C  0.24595408  0.64082090  0.00436804     0.15600
C694        C  0.22616265  0.63996671  0.03231973    -0.18900
C695        C  0.29901882  0.64422040  0.99913873    -0.20700
C696        C  0.31860815  0.64185880  0.97151272    -0.13300
C697        C  0.28578098  0.63568597  0.94835026     0.03400
C698        C  0.23226506  0.63408813  0.95343606    -0.25400
H699        H  0.09853885  0.63087486  0.01697372     0.08500
H700        H  0.13255040  0.63147044  0.96884382     0.12100
H701        H  0.25227211  0.64134457  0.05005522     0.12000
H702        H  0.32559417  0.64761810  0.01649582     0.11800
H703        H  0.35995520  0.64307043  0.96848463     0.12300
H704        H  0.20629669  0.62931956  0.93596497     0.14200
C705        C  0.02911231  0.51420389  0.03279418    -0.05800
C706        C  0.02665228  0.47533483  0.03148043    -0.05700
C707        C  0.99053900  0.45779881  0.01441573    -0.23900
C708        C  0.95629754  0.47889172  0.99841460     0.18300
C709        C  0.95863615  0.51804645  0.99938987     0.15600
C710        C  0.99521873  0.53547470  0.01650037    -0.18900
C711        C  0.92481995  0.53901976  0.98292030    -0.20700
C712        C  0.89199463  0.52132237  0.96392314    -0.13300
C713        C  0.89148972  0.48248968  0.96191165     0.03400
C714        C  0.92158126  0.46140216  0.98034837    -0.25400
H715        H  0.05173185  0.45847418  0.04435944     0.08500
H716        H  0.98930661  0.42776757  0.01379216     0.12100
H717        H  0.99590217  0.56547422  0.01799625     0.12000
H718        H  0.92575960  0.56904290  0.98360594     0.11800
H719        H  0.86927583  0.53795958  0.94963197     0.12300
H720        H  0.92196988  0.43141880  0.97857635     0.14200
C721        C  0.12696004  0.45880597  0.28917417    -0.05800
C722        C  0.12435942  0.43485287  0.26591869    -0.05700
C723        C  0.12383679  0.44904352  0.23839935    -0.23900
C724        C  0.12605805  0.48748552  0.23357573     0.18300
C725        C  0.12856511  0.51205149  0.25660857     0.15600
C726        C  0.12889338  0.49758049  0.28426344    -0.18900
C727        C  0.13086554  0.55055897  0.25148385    -0.20700
C728        C  0.13078789  0.56453445  0.22370697    -0.13300
C729        C  0.12849853  0.54020669  0.20063197     0.03400
C730        C  0.12596782  0.50162539  0.20599410    -0.25400
H731        H  0.12288060  0.40509411  0.26898523     0.08500
H732        H  0.12189600  0.42988705  0.22083205     0.12100
H733        H  0.13104373  0.51657851  0.30192045     0.12000
H734        H  0.13281832  0.56985119  0.26895560     0.11800
H735        H  0.13272592  0.59420850  0.22029420     0.12300
H736        H  0.12392308  0.48219009  0.18859790     0.14200
C737        C  0.83552423  0.94972170  0.20461336    -0.05800
C738        C  0.86021242  0.92908501  0.22564956    -0.05700
C739        C  0.86761881  0.94429621  0.25265592    -0.23900
C740        C  0.85037158  0.98032324  0.25902719     0.18300
C741        C  0.82379082  0.00065321  0.23834116     0.15600
C742        C  0.81637109  0.98521006  0.21149369    -0.18900
C743        C  0.80584004  0.03640728  0.24463890    -0.20700
C744        C  0.81425081  0.05207117  0.27127248    -0.13300
C745        C  0.84135747  0.03249674  0.29201861     0.03400
C746        C  0.85930866  0.99646052  0.28562524    -0.25400
H747        H  0.87558388  0.90195400  0.22089445     0.08500
H748        H  0.88781737  0.92818688  0.26838972     0.12100
H749        H  0.79673034  0.00143769  0.19558544     0.12000
H750        H  0.78518722  0.05227780  0.22894069     0.11800
H751        H  0.79950152  0.07949149  0.27565078     0.12300
H752        H  0.87945213  0.98059234  0.30153970     0.14200
C753        C  0.91969973  0.80121079  0.13345132    -0.05800
C754        C  0.88859572  0.76940284  0.13638447    -0.05700
C755        C  0.91078748  0.73432850  0.13901557    -0.23900
C756        C  0.96451934  0.73043328  0.13885893     0.18300
C757        C  0.99621568  0.76237100  0.13778469     0.15600
C758        C  0.97362962  0.79754943  0.13512292    -0.18900
C759        C  0.04997243  0.75838831  0.13784160    -0.20700
C760        C  0.07208321  0.72308498  0.13681741    -0.13300
C761        C  0.04081841  0.69116810  0.13575445     0.03400
C762        C  0.98698646  0.69511444  0.13807804    -0.25400
H763        H  0.84707470  0.77140959  0.13515843     0.08500
H764        H  0.88590575  0.71012207  0.14003020     0.12100
H765        H  0.99809329  0.82190021  0.13311362     0.12000
H766        H  0.07490711  0.78258806  0.13733471     0.11800
H767        H  0.11355761  0.72090013  0.13514495     0.12300
H768        H  0.96232767  0.67075299  0.13756207     0.14200
C769        C  0.91714817  0.98318788  0.03383203    -0.05800
C770        C  0.92419898  0.02183833  0.03390913    -0.05700
C771        C  0.96192208  0.03822319  0.01683753    -0.23900
C772        C  0.99357182  0.01603232  0.99989451     0.18300
C773        C  0.98573712  0.97722161  0.99923875     0.15600
C774        C  0.94683016  0.96117552  0.01571427    -0.18900
C775        C  0.01756449  0.95496135  0.98250834    -0.20700
C776        C  0.05475082  0.97126589  0.96511496    -0.13300
C777        C  0.06069876  0.00999103  0.96436490     0.03400
C778        C  0.03183714  0.03209441  0.98291771    -0.25400
H779        H  0.90218327  0.03913509  0.04817469     0.08500
H780        H  0.96725191  0.06802613  0.01745598     0.12100
H781        H  0.94241744  0.93125116  0.01604791     0.12000
H782        H  0.01240426  0.92512745  0.98207059     0.11800
H783        H  0.07635362  0.95381324  0.95075557     0.12300
H784        H  0.03567360  0.06204503  0.98224121     0.14200
C785        C  0.69323431  0.84617338  0.94434421    -0.05800
C786        C  0.74717714  0.84895277  0.94181025    -0.05700
C787        C  0.77864134  0.84955933  0.96582968    -0.23900
C788        C  0.75694370  0.84799450  0.99309518     0.18300
C789        C  0.70301465  0.84406653  0.99602694     0.15600
C790        C  0.67164328  0.84270071  0.97173529    -0.18900
C791        C  0.68112288  0.84342033  0.02324737    -0.20700
C792        C  0.71193452  0.84823248  0.04722021    -0.13300
C793        C  0.76557250  0.85317463  0.04471584     0.03400
C794        C  0.78793303  0.85202180  0.01740349    -0.25400
H795        H  0.76508315  0.85204306  0.92119370     0.08500
H796        H  0.81986729  0.85263379  0.96307163     0.12100
H797        H  0.63020742  0.84116047  0.97427601     0.12000
H798        H  0.63986798  0.84047606  0.02597828     0.11800
H799        H  0.69346815  0.84905013  0.06780174     0.12300
H800        H  0.82904178  0.85627610  0.01492683     0.14200
C801        C  0.75961297  0.35421902  0.94414999    -0.05800
C802        C  0.70572457  0.35766727  0.94249268    -0.05700
C803        C  0.67475025  0.35681744  0.96688567    -0.23900
C804        C  0.69681659  0.35288177  0.99373110     0.18300
C805        C  0.75061837  0.34822033  0.99584371     0.15600
C806        C  0.78160141  0.34851035  0.97109067    -0.18900
C807        C  0.77270621  0.34517906  0.02280095    -0.20700
C808        C  0.74224495  0.34842449  0.04732880    -0.13300
C809        C  0.68875401  0.35396195  0.04559249     0.03400
C810        C  0.66623750  0.35520458  0.01849337    -0.25400
H811        H  0.68745408  0.36241752  0.92230319     0.08500
H812        H  0.63361018  0.36050619  0.96479399     0.12100
H813        H  0.82300141  0.34632474  0.97299185     0.12000
H814        H  0.81385410  0.34162069  0.02494858     0.11800
H815        H  0.76083442  0.34754906  0.06774093     0.12300
H816        H  0.62528332  0.36007163  0.01661297     0.14200
C817        C  0.41128469  0.50864736  0.95964255    -0.05800
C818        C  0.41024090  0.47014904  0.96390742    -0.05700
C819        C  0.44434328  0.45374902  0.98275198    -0.23900
C820        C  0.48061628  0.47564219  0.99696983     0.18300
C821        C  0.48084217  0.51454213  0.99336317     0.15600
C822        C  0.44552922  0.53082339  0.97512280    -0.18900
C823        C  0.51699193  0.53645798  0.00766008    -0.20700
C824        C  0.55141559  0.52002763  0.02630255    -0.13300
C825        C  0.55086060  0.48149372  0.03024342     0.03400
C826        C  0.51625091  0.45933782  0.01501125    -0.25400
H827        H  0.38449609  0.45267344  0.95180626     0.08500
H828        H  0.44348235  0.42392043  0.98550760     0.12100
H829        H  0.44722814  0.56051640  0.97149046     0.12000
H830        H  0.51766289  0.56630969  0.00502590     0.11800
H831        H  0.57711029  0.53745526  0.03847361     0.12300
H832        H  0.51464520  0.42965246  0.01867913     0.14200
C833        C  0.75808135  0.47610350  0.11248188    -0.05800
C834        C  0.76715640  0.50236694  0.09099720    -0.05700
C835        C  0.81428291  0.52075273  0.08893530    -0.23900
C836        C  0.85322455  0.51333594  0.10838956     0.18300
C837        C  0.84496614  0.48687142  0.13002712     0.15600
C838        C  0.79736509  0.46825715  0.13190335    -0.18900
C839        C  0.88455068  0.47953374  0.14928455    -0.20700
C840        C  0.93218155  0.49771522  0.14671265    -0.13300
C841        C  0.94067918  0.52376829  0.12502832     0.03400
C842        C  0.90056355  0.53170867  0.10620146    -0.25400
H843        H  0.73763812  0.50885131  0.07572917     0.08500
H844        H  0.82021661  0.54084368  0.07214632     0.12100
H845        H  0.79068140  0.44820104  0.14864182     0.12000
H846        H  0.87894744  0.45935873  0.16603784     0.11800
H847        H  0.96261162  0.49090605  0.16134008     0.12300
H848        H  0.90655873  0.55142599  0.08914889     0.14200
C849        C  0.25727582  0.51571902  0.10389651    -0.05800
C850        C  0.26843039  0.49355346  0.08033888    -0.05700
C851        C  0.31648448  0.47657673  0.07776013    -0.23900
C852        C  0.35361038  0.48116639  0.09891813     0.18300
C853        C  0.34228738  0.50307883  0.12282371     0.15600
C854        C  0.29444707  0.52033783  0.12504788    -0.18900
C855        C  0.37904344  0.50754494  0.14410392    -0.20700
C856        C  0.42721107  0.49100450  0.14150156    -0.13300
C857        C  0.43930499  0.46967547  0.11760923     0.03400
C858        C  0.40200751  0.46453901  0.09649272    -0.25400
H859        H  0.24022159  0.48968624  0.06383603     0.08500
H860        H  0.32459772  0.45987040  0.05927629     0.12100
H861        H  0.28593610  0.53706143  0.14349242     0.12000
H862        H  0.37074731  0.52417270  0.16260692     0.11800
H863        H  0.45527193  0.49538149  0.15800593     0.12300
H864        H  0.41093654  0.44830952  0.07785745     0.14200
C865        C  0.70156851  0.97837523  0.11203852    -0.05800
C866        C  0.69440357  0.00678681  0.09214224    -0.05700
C867        C  0.64706355  0.02450424  0.09011472    -0.23900
C868        C  0.60624576  0.01408923  0.10797534     0.18300
C869        C  0.61325884  0.98601480  0.12841257     0.15600
C870        C  0.66088752  0.96830865  0.13029993    -0.18900
C871        C  0.57225244  0.97574441  0.14626798    -0.20700
C872        C  0.52405804  0.99218599  0.14313385    -0.13300
C873        C  0.51640821  0.01921455  0.12218984     0.03400
C874        C  0.55813804  0.03065946  0.10517961    -0.25400
H875        H  0.72528766  0.01513070  0.07796928     0.08500
H876        H  0.64220515  0.04605746  0.07437471     0.12100
H877        H  0.66619063  0.94668837  0.14595673     0.12000
H878        H  0.57712564  0.95441845  0.16218220     0.11800
H879        H  0.49249543  0.98301117  0.15653551     0.12300
H880        H  0.55288032  0.05167354  0.08904054     0.14200
C881        C  0.19892867  0.01572187  0.10728554    -0.05800
C882        C  0.18760138  0.99393450  0.08354653    -0.05700
C883        C  0.14030915  0.97564120  0.08148160    -0.23900
C884        C  0.10381122  0.97849786  0.10329090     0.18300
C885        C  0.11494346  0.00006704  0.12740173     0.15600
C886        C  0.16234204  0.01875906  0.12916595    -0.18900
C887        C  0.07831828  0.00273086  0.14920894    -0.20700
C888        C  0.03040066  0.98518255  0.14672056    -0.13300
C889        C  0.01857178  0.96440932  0.12250683     0.03400
C890        C  0.05600945  0.96065247  0.10110939    -0.25400
H891        H  0.21534671  0.99113596  0.06651258     0.08500
H892        H  0.13229852  0.95924186  0.06283876     0.12100
H893        H  0.17110717  0.03509149  0.14775209     0.12000
H894        H  0.08633459  0.01897718  0.16792168     0.11800
H895        H  0.00219747  0.98853560  0.16346160     0.12300
H896        H  0.04735872  0.94494733  0.08219350     0.14200
C897        C  0.51710376  0.30981906  0.13486411    -0.05800
C898        C  0.46307218  0.31346818  0.13605369    -0.05700
C899        C  0.43081484  0.28244801  0.13841351    -0.23900
C900        C  0.45164207  0.24680714  0.13950382     0.18300
C901        C  0.50587631  0.24277467  0.14022398     0.15600
C902        C  0.53835515  0.27431070  0.13817602    -0.18900
C903        C  0.52664268  0.20709102  0.14127702    -0.20700
C904        C  0.49449386  0.17593438  0.13954679    -0.13300
C905        C  0.44065143  0.17952936  0.13680450     0.03400
C906        C  0.41930620  0.21520505  0.13809772    -0.25400
H907        H  0.44544619  0.34046225  0.13389604     0.08500
H908        H  0.38944884  0.28629726  0.13811379     0.12100
H909        H  0.57978825  0.27094614  0.13716997     0.12000
H910        H  0.56796378  0.20322701  0.14212471     0.11800
H911        H  0.51220773  0.14883534  0.13892533     0.12300
H912        H  0.37805376  0.21854006  0.13587154     0.14200
C913        C  0.17575395  0.13321945  0.95060837    -0.05800
C914        C  0.14301956  0.12963287  0.97440477    -0.05700
C915        C  0.16239747  0.12922912  0.00192422    -0.23900
C916        C  0.21522750  0.13338046  0.00678254     0.18300
C917        C  0.24879867  0.13857051  0.98340153     0.15600
C918        C  0.22909415  0.13783983  0.95539663    -0.18900
C919        C  0.30155868  0.14367379  0.98856699    -0.20700
C920        C  0.32085477  0.14246288  0.01625280    -0.13300
C921        C  0.28817323  0.13572297  0.03969201     0.03400
C922        C  0.23497794  0.13166595  0.03459826    -0.25400
H923        H  0.10194978  0.12572970  0.97176746     0.08500
H924        H  0.13587656  0.12532326  0.01946564     0.12100
H925        H  0.25509675  0.14056375  0.93750789     0.12000
H926        H  0.32817899  0.14793020  0.97112615     0.11800
H927        H  0.36200016  0.14537519  0.01916631     0.12300
H928        H  0.20903621  0.12622689  0.05217856     0.14200
C929        C  0.56163138  0.96803628  0.96776718    -0.05800
C930        C  0.56644955  0.94968074  0.99379058    -0.05700
C931        C  0.53169386  0.95684446  0.01571130    -0.23900
C932        C  0.49099808  0.98162231  0.01150295     0.18300
C933        C  0.48690107  0.00087666  0.98561876     0.15600
C934        C  0.52301811  0.99473979  0.96430622    -0.18900
C935        C  0.44598586  0.02528709  0.98113442    -0.20700
C936        C  0.41056216  0.03193371  0.00269534    -0.13300
C937        C  0.41537371  0.01391678  0.02883609     0.03400
C938        C  0.45472286  0.98789689  0.03282907    -0.25400
H939        H  0.59543431  0.92855054  0.99665972     0.08500
H940        H  0.53548775  0.94204266  0.03553977     0.12100
H941        H  0.51822739  0.00857569  0.94412105     0.12000
H942        H  0.44215831  0.03992318  0.96123455     0.11800
H943        H  0.38088154  0.05245992  0.99944329     0.12300
H944        H  0.45930559  0.97444029  0.05317615     0.14200
C945        C  0.68526701  0.64301056  0.44863012    -0.05800
C946        C  0.65354182  0.64586505  0.47281622    -0.05700
C947        C  0.67434961  0.64541279  0.50005362    -0.23900
C948        C  0.72763638  0.64259730  0.50396460     0.18300
C949        C  0.76035234  0.64202466  0.47994478     0.15600
C950        C  0.73907942  0.64198045  0.45246824    -0.18900
C951        C  0.81371560  0.63999631  0.48387350    -0.20700
C952        C  0.83425603  0.63696676  0.51108458    -0.13300
C953        C  0.80210015  0.63542036  0.53521424     0.03400
C954        C  0.74854580  0.63898827  0.53138889    -0.25400
H955        H  0.61204227  0.64642865  0.47079865     0.08500
H956        H  0.64850275  0.64615108  0.51810647     0.12100
H957        H  0.76423741  0.63960622  0.43421062     0.12000
H958        H  0.83961560  0.63974820  0.46583628     0.11800
H959        H  0.87555659  0.63409236  0.51308310     0.12300
H960        H  0.72306094  0.63779038  0.54960049     0.14200
C961        C  0.56483751  0.52246314  0.46833183    -0.05800
C962        C  0.57589092  0.53686815  0.49512985    -0.05700
C963        C  0.54069046  0.53229155  0.51733434    -0.23900
C964        C  0.49329835  0.51448667  0.51264109     0.18300
C965        C  0.48144458  0.50083887  0.48548520     0.15600
C966        C  0.51773763  0.50420025  0.46374304    -0.18900
C967        C  0.43389973  0.48336416  0.48067268    -0.20700
C968        C  0.40059438  0.47603925  0.50327983    -0.13300
C969        C  0.41399967  0.48704889  0.53062551     0.03400
C970        C  0.45879168  0.50817230  0.53494047    -0.25400
H971        H  0.61118125  0.55230780  0.49864390     0.08500
H972        H  0.55022317  0.54301029  0.53804910     0.12100
H973        H  0.50818800  0.49420483  0.44280927     0.12000
H974        H  0.42407394  0.47319606  0.45983462     0.11800
H975        H  0.36699606  0.45869430  0.49989890     0.12300
H976        H  0.46977816  0.51566186  0.55628638     0.14200
C977        C  0.78160416  0.53008034  0.38020592    -0.05800
C978        C  0.82120679  0.55416238  0.37109941    -0.05700
C979        C  0.87215760  0.54196732  0.36924992    -0.23900
C980        C  0.88449497  0.50524602  0.37609916     0.18300
C981        C  0.84509786  0.48088588  0.38559703     0.15600
C982        C  0.79405923  0.49351450  0.38782255    -0.18900
C983        C  0.85736778  0.44419884  0.39251216    -0.20700
C984        C  0.90817242  0.43187476  0.39042165    -0.13300
C985        C  0.94777718  0.45579470  0.38106031     0.03400
C986        C  0.93550290  0.49250471  0.37371056    -0.25400
H987        H  0.81266718  0.58248419  0.36519088     0.08500
H988        H  0.90179793  0.56114212  0.36209916     0.12100
H989        H  0.76385101  0.47458360  0.39466737     0.12000
H990        H  0.82774003  0.42509546  0.39979567     0.11800
H991        H  0.91662006  0.40355270  0.39639258     0.12300
H992        H  0.96579760  0.51141317  0.36693506     0.14200
C993        C  0.45954559  0.51215208  0.37966330    -0.05800
C994        C  0.45226535  0.48569274  0.35827510    -0.05700
C995        C  0.40377406  0.46988281  0.35379674    -0.23900
C996        C  0.36162189  0.48031131  0.37056637     0.18300
C997        C  0.36846909  0.50679965  0.39218739     0.15600
C998        C  0.41732407  0.52244438  0.39665498    -0.18900
C999        C  0.32628450  0.51726270  0.40892275    -0.20700
C1000       C  0.27767628  0.50171169  0.40422210    -0.13300
C1001       C  0.27037515  0.47531268  0.38276139     0.03400
C1002       C  0.31275046  0.46472070  0.36603181    -0.25400
H1003       H  0.48409949  0.47717770  0.34494959     0.08500
H1004       H  0.39921641  0.44956525  0.33714682     0.12100
H1005       H  0.42235196  0.54269458  0.41332418     0.12000
H1006       H  0.33086090  0.53749048  0.42562954     0.11800
H1007       H  0.24579978  0.51028375  0.41749297     0.12300
H1008       H  0.30777828  0.44436160  0.34943744     0.14200
C1009       C  0.62184149  0.53355745  0.29331078    -0.05800
C1010       C  0.61461468  0.55774636  0.27042700    -0.05700
C1011       C  0.60935565  0.54389587  0.24294914    -0.23900
C1012       C  0.61120643  0.50554300  0.23775325     0.18300
C1013       C  0.61687074  0.48071934  0.26051910     0.15600
C1014       C  0.62198080  0.49484362  0.28812646    -0.18900
C1015       C  0.61844796  0.44230899  0.25512415    -0.20700
C1016       C  0.61647379  0.42874162  0.22729171    -0.13300
C1017       C  0.61272283  0.45334235  0.20436310     0.03400
C1018       C  0.60881520  0.49175541  0.21005069    -0.25400
H1019       H  0.61383796  0.58744695  0.27369532     0.08500
H1020       H  0.60470350  0.56328782  0.22564525     0.12100
H1021       H  0.62681120  0.47560833  0.30551940     0.12000
H1022       H  0.62241133  0.42279478  0.27239538     0.11800
H1023       H  0.61929901  0.39918920  0.22368154     0.12300
H1024       H  0.60518216  0.51131401  0.19276279     0.14200
C1025       C  0.53364418  0.94965099  0.36735785    -0.05800
C1026       C  0.57434292  0.92453440  0.36364072    -0.05700
C1027       C  0.62570931  0.93694348  0.36422563    -0.23900
C1028       C  0.63724411  0.97455895  0.36901915     0.18300
C1029       C  0.59645286  0.99989475  0.37244546     0.15600
C1030       C  0.54535958  0.98745862  0.37116557    -0.18900
C1031       C  0.60718650  0.03728525  0.37779790    -0.20700
C1032       C  0.65793561  0.04969681  0.37974783    -0.13300
C1033       C  0.69928971  0.02510048  0.37616705     0.03400
C1034       C  0.68858051  0.98735259  0.37074510    -0.25400
H1035       H  0.56652003  0.89523592  0.36093623     0.08500
H1036       H  0.65638818  0.91700488  0.36156417     0.12100
H1037       H  0.51463551  0.00726832  0.37438219     0.12000
H1038       H  0.57623896  0.05699853  0.38060979     0.11800
H1039       H  0.66473125  0.07885588  0.38380360     0.12300
H1040       H  0.71997994  0.96803279  0.36786627     0.14200
C1041       C  0.03344397  0.03329629  0.37769728    -0.05800
C1042       C  0.07304793  0.05731155  0.36858738    -0.05700
C1043       C  0.12432683  0.04537206  0.36796650    -0.23900
C1044       C  0.13700048  0.00939228  0.37687203     0.18300
C1045       C  0.09743034  0.98526826  0.38639135     0.15600
C1046       C  0.04612302  0.99720880  0.38650567    -0.18900
C1047       C  0.10973280  0.94952099  0.39567463    -0.20700
C1048       C  0.16061226  0.93732166  0.39485444    -0.13300
C1049       C  0.20043380  0.96059601  0.38479821     0.03400
C1050       C  0.18833490  0.99695403  0.37620310    -0.25400
H1051       H  0.06433510  0.08531356  0.36191569     0.08500
H1052       H  0.15409368  0.06434125  0.36065410     0.12100
H1053       H  0.01613507  0.97853880  0.39402067     0.12000
H1054       H  0.07989472  0.93079557  0.40327214     0.11800
H1055       H  0.16866807  0.90930820  0.40175990     0.12300
H1056       H  0.21852702  0.01520096  0.36833292     0.14200
C1057       C  0.33156212  0.95386341  0.29070391    -0.05800
C1058       C  0.30851745  0.93290551  0.26921023    -0.05700
C1059       C  0.30273697  0.94788691  0.24198034    -0.23900
C1060       C  0.31922559  0.98431691  0.23578041     0.18300
C1061       C  0.34115073  0.00606537  0.25730278     0.15600
C1062       C  0.34740462  0.99069590  0.28445297    -0.18900
C1063       C  0.35684207  0.04271060  0.25121754    -0.20700
C1064       C  0.35219873  0.05738476  0.22381850    -0.13300
C1065       C  0.33202749  0.03564056  0.20191381     0.03400
C1066       C  0.31486059  0.99917551  0.20835001    -0.25400
H1067       H  0.29561942  0.90479671  0.27334633     0.08500
H1068       H  0.28553488  0.93086731  0.22568475     0.12100
H1069       H  0.36446926  0.00766934  0.30083315     0.12000
H1070       H  0.37350444  0.05987832  0.26759197     0.11800
H1071       H  0.36586035  0.08528478  0.21957944     0.12300
H1072       H  0.29875096  0.98195499  0.19182772     0.14200
C1073       C  0.43070490  0.79963717  0.34844997    -0.05800
C1074       C  0.48341179  0.80576588  0.34315773    -0.05700
C1075       C  0.51787674  0.77607563  0.34170545    -0.23900
C1076       C  0.50040664  0.73961011  0.34603409     0.18300
C1077       C  0.44690174  0.73305643  0.34955789     0.15600
C1078       C  0.41237804  0.76305839  0.35058445    -0.18900
C1079       C  0.42920015  0.69682783  0.35408248    -0.20700
C1080       C  0.46405782  0.66778953  0.35700987    -0.13300
C1081       C  0.51770078  0.67408638  0.35556966     0.03400
C1082       C  0.53556468  0.71002689  0.34887629    -0.25400
H1083       H  0.49852012  0.83380956  0.34223761     0.08500
H1084       H  0.55861498  0.78186160  0.33891951     0.12100
H1085       H  0.37206702  0.75814900  0.35559347     0.12000
H1086       H  0.38837436  0.69112627  0.35659754     0.11800
H1087       H  0.44881365  0.64044258  0.36173749     0.12300
H1088       H  0.57664967  0.71546087  0.34774385     0.14200
C1089       C  0.17497187  0.85145970  0.54005950    -0.05800
C1090       C  0.14424663  0.85149541  0.51556803    -0.05700
C1091       C  0.16626169  0.84897978  0.48845595    -0.23900
C1092       C  0.21974840  0.84580396  0.48495616     0.18300
C1093       C  0.25084565  0.84353408  0.50936984     0.15600
C1094       C  0.22850101  0.84671951  0.53666325    -0.18900
C1095       C  0.30416321  0.83975373  0.50604343    -0.20700
C1096       C  0.32675854  0.84080892  0.47912198    -0.13300
C1097       C  0.29698092  0.84575564  0.45457900     0.03400
C1098       C  0.24289871  0.84681559  0.45764348    -0.25400
H1099       H  0.10301568  0.85538254  0.51725171     0.08500
H1100       H  0.14147491  0.85064378  0.47018913     0.12100
H1101       H  0.25290771  0.84666236  0.55514166     0.12000
H1102       H  0.32875548  0.83751241  0.52435519     0.11800
H1103       H  0.36837497  0.83979383  0.47760742     0.12300
H1104       H  0.21927266  0.85111534  0.43915739     0.14200
C1105       C  0.54781239  0.01743877  0.53191216    -0.05800
C1106       C  0.55057667  0.97871704  0.53063201    -0.05700
C1107       C  0.51938054  0.95933946  0.51183004    -0.23900
C1108       C  0.48520563  0.97863201  0.49437285     0.18300
C1109       C  0.48417568  0.01771455  0.49461713     0.15600
C1110       C  0.51635846  0.03683845  0.51295272    -0.18900
C1111       C  0.45013099  0.03696414  0.47701484    -0.20700
C1112       C  0.41894568  0.01751660  0.45819023    -0.13300
C1113       C  0.42145486  0.97879672  0.45716303     0.03400
C1114       C  0.45285347  0.95949121  0.47618632    -0.25400
H1115       H  0.57402838  0.96340151  0.54540911     0.08500
H1116       H  0.52074810  0.92931653  0.51156795     0.12100
H1117       H  0.51433012  0.06685884  0.51384441     0.12000
H1118       H  0.44887363  0.06699314  0.47718361     0.11800
H1119       H  0.39570153  0.03271036  0.44323548     0.12300
H1120       H  0.45476996  0.92945742  0.47537792     0.14200
loop_ 
_geom_bond_atom_site_label_1 
_geom_bond_atom_site_label_2 
_geom_bond_distance 
_geom_bond_site_symmetry_2 
_ccdc_geom_bond_type 
O1          Cr19   2.068       .  S
O1            C9   1.284       .  A
O2          Cr19   1.972       .  S
O2            C3   1.257       .  A
C3            O4   1.264       .  A
C3         C1049   1.487       .  S
O4          Cr20   2.011       .  S
O5          Cr20   1.989       .  S
O5            C6   1.259       .  A
C6            O7   1.253       .  A
C6         C1113   1.456       .  S
O7          Cr21   1.954       .  S
O8          Cr21   1.951       .  S
O8            C9   1.259       .  A
C9         C1097   1.501       .  S
O10         Cr19   2.019       .  S
O10          C18   1.261       .  A
O11         Cr19   2.053       .  S
O11          C12   1.279       .  A
C12          O13   1.257       .  A
C12        C1057   1.497       .  S
O13         Cr20   1.954       .  S
O14         Cr20   2.014       .  S
O14          C15   1.273       .  A
C15          O16   1.268       .  A
C15        C1025   1.486       .  S
O16         Cr21   1.986       .  S
O17         Cr21   1.973       .  S
O17          C18   1.250       .  A
C18        C1073   1.476       .  S
Cr19         O22   1.775       .  S
Cr20         O22   1.777       .  S
Cr21         O22   1.776       .  S
O23         Cr41   2.014       .  S
O23          C31   1.264       .  A
O24         Cr41   2.013       .  S
O24          C25   1.270       .  A
C25          O26   1.266       .  A
C25         C977   1.484       .  S
O26         Cr42   1.985       .  S
O27         Cr42   2.016       .  S
O27          C28   1.265       .  A
C28          O29   1.249       .  A
C28         C961   1.462       .  S
O29         Cr43   1.959       .  S
O30         Cr43   1.997       .  S
O30          C31   1.263       .  A
C31         C945   1.499       .  S
O32         Cr41   2.056       .  S
O32          C40   1.276       .  A
O33         Cr41   2.014       .  S
O33          C34   1.274       .  A
C34          O35   1.266       .  A
C34        C1009   1.494       .  S
O35         Cr42   1.998       .  S
O36         Cr42   1.977       .  S
O36          C37   1.263       .  A
C37          O38   1.268       .  A
C37         C993   1.480       .  S
O38         Cr43   2.010       .  S
O39         Cr43   1.954       .  S
O39          C40   1.255       .  A
C40        C1081   1.494       .  S
Cr41         O44   1.768       .  S
Cr42         O44   1.770       .  S
Cr43         O44   1.761       .  S
O45         Cr63   2.020       .  S
O45          C53   1.266       .  A
O46         Cr63   2.020       .  S
O46          C47   1.271       .  A
C47          O48   1.261       .  A
C47         C881   1.473       .  S
O48         Cr64   1.967       .  S
O49         Cr64   2.003       .  S
O49          C50   1.262       .  A
C50          O51   1.251       .  A
C50         C937   1.461       .  S
O51         Cr65   1.960       .  S
O52         Cr65   2.001       .  S
O52          C53   1.263       .  A
C53         C921   1.507       .  S
O54         Cr63   2.059       .  S
O54          C62   1.277       .  A
O55         Cr63   2.026       .  S
O55          C56   1.275       .  A
C56          O57   1.264       .  A
C56        C1065   1.496       .  S
O57         Cr64   1.994       .  S
O58         Cr64   1.976       .  S
O58          C59   1.263       .  A
C59          O60   1.267       .  A
C59         C873   1.473       .  S
O60         Cr65   1.999       .  S
O61         Cr65   1.951       .  S
O61          C62   1.254       .  A
C62         C905   1.492       .  S
Cr63         O66   1.766       .  S
Cr64         O66   1.765       .  S
Cr65         O66   1.759       .  S
O67         Cr85   2.006       .  S
O67          C75   1.265       .  A
O68         Cr85   2.026       .  S
O68          C69   1.272       .  A
C69          O70   1.261       .  A
C69         C833   1.476       .  S
O70         Cr86   1.958       .  S
O71         Cr86   1.993       .  S
O71          C72   1.258       .  A
C72          O73   1.252       .  A
C72         C825   1.459       .  S
O73         Cr87   1.962       .  S
O74         Cr87   2.005       .  S
O74          C75   1.265       .  A
C75         C809   1.501       .  S
O76         Cr85   2.051       .  S
O76          C84   1.275       .  A
O77         Cr85   2.025       .  S
O77          C78   1.272       .  A
C78          O79   1.261       .  A
C78        C1017   1.496       .  S
O79         Cr86   1.984       .  S
O80         Cr86   1.972       .  S
O80          C81   1.263       .  A
C81          O82   1.268       .  A
C81         C857   1.474       .  S
O82         Cr87   2.008       .  S
O83         Cr87   1.952       .  S
O83          C84   1.254       .  A
C84         C897   1.492       .  S
Cr85         O88   1.774       .  S
Cr86         O88   1.767       .  S
Cr87         O88   1.766       .  S
O89        Cr107   2.013       .  S
O89          C97   1.268       .  A
O90        Cr107   1.969       .  S
O90          C91   1.254       .  A
C91          O92   1.255       .  A
C91         C769   1.461       .  S
O92        Cr108   1.980       .  S
O93        Cr108   1.966       .  S
O93          C94   1.261       .  A
C94          O95   1.269       .  A
C94         C865   1.470       .  S
O95        Cr109   2.009       .  S
O96        Cr109   1.998       .  S
O96          C97   1.266       .  A
C97         C793   1.500       .  S
O98        Cr107   1.970       .  S
O98         C106   1.257       .  A
O99        Cr107   2.009       .  S
O99         C100   1.270       .  A
C100        O101   1.265       .  A
C100        C889   1.478   1_655  S
O101       Cr108   1.977       .  S
O102       Cr108   1.980       .  S
O102        C103   1.258       .  A
C103        O104   1.271       .  A
C103        C737   1.488       .  S
O104       Cr109   2.024       .  S
O105       Cr109   2.019       .  S
O105        C106   1.268       .  A
C106        C753   1.485       .  S
Cr107       O110   1.769       .  S
Cr108       O110   1.771       .  S
Cr109       O110   1.771       .  S
O111       Cr129   2.006       .  S
O111        C119   1.268       .  A
O112       Cr129   1.969       .  S
O112        C113   1.257       .  A
C113        O114   1.258       .  A
C113        C705   1.466       .  S
O114       Cr130   1.982       .  S
O115       Cr130   1.981       .  S
O115        C116   1.261       .  A
C116        O117   1.265       .  A
C116        C849   1.471       .  S
O117       Cr131   1.998       .  S
O118       Cr131   2.006       .  S
O118        C119   1.266       .  A
C119        C689   1.496       .  S
O120       Cr129   1.968       .  S
O120        C128   1.255       .  A
O121       Cr129   1.993   1_655  S
O121        C122   1.266       .  A
C122        O123   1.264   1_655  A
C122        C841   1.478       .  S
O123       Cr130   1.983       .  S
O124       Cr130   1.983       .  S
O124        C125   1.263       .  A
C125        O126   1.274       .  A
C125        C729   1.492       .  S
O126       Cr131   2.022       .  S
O127       Cr131   2.025       .  S
O127        C128   1.267       .  A
C128        C761   1.486       .  S
Cr129       O132   1.766       .  S
Cr130       O132   1.767       .  S
Cr131       O132   1.775       .  S
O133       Cr151   1.969       .  S
O133        C141   1.259       .  A
O134       Cr151   1.969       .  S
O134        C135   1.258       .  A
C135        O136   1.258       .  A
C135        C657   1.447       .  S
O136       Cr152   1.984       .  S
O137       Cr152   2.013       .  S
O137        C138   1.263       .  A
C138        O139   1.258       .  A
C138       C1033   1.487       .  S
O139       Cr153   1.972       .  S
O140       Cr153   2.042       .  S
O140        C141   1.278       .  A
C141        C673   1.498       .  S
O142       Cr151   1.986       .  S
O142        C150   1.257       .  A
O143       Cr151   1.984       .  S
O143        C144   1.264       .  A
C144        O145   1.270       .  A
C144       C1041   1.483   1_655  S
O145       Cr152   2.017       .  S
O146       Cr152   1.960       .  S
O146        C147   1.259       .  A
C147        O148   1.277       .  A
C147        C745   1.490       .  S
O148       Cr153   2.040       .  S
O149       Cr153   2.005       .  S
O149        C150   1.262       .  A
C150        C641   1.479       .  S
Cr151       O154   1.777       .  S
Cr152       O154   1.782       .  S
Cr153       O154   1.774       .  S
O155       Cr173   2.014       .  S
O155        C163   1.267       .  A
O156       Cr173   1.964       .  S
O156        C157   1.253       .  A
C157        O158   1.258       .  A
C157        C609   1.449       .  S
O158       Cr174   1.974       .  S
O159       Cr174   1.976       .  S
O159        C160   1.260       .  A
C160        O161   1.267       .  A
C160       C1001   1.482       .  S
O161       Cr175   2.012       .  S
O162       Cr175   1.985       .  S
O162        C163   1.263       .  A
C163        C625   1.492       .  S
O164       Cr173   1.966       .  S
O164        C172   1.254       .  A
O165       Cr173   2.004       .  S
O165        C166   1.268       .  A
C166        O167   1.267       .  A
C166        C985   1.484   1_455  S
O167       Cr174   1.989       .  S
O168       Cr174   1.996       .  S
O168        C169   1.265       .  A
C169        O170   1.271       .  A
C169        C721   1.489       .  S
O170       Cr175   2.003       .  S
O171       Cr175   2.037       .  S
O171        C172   1.270       .  A
C172        C649   1.488       .  S
Cr173       O176   1.772       .  S
Cr174       O176   1.772       .  S
Cr175       O176   1.776       .  S
O177       Cr195   1.956       .  S
O177        C185   1.260       .  A
O178       Cr195   1.955       .  S
O178        C179   1.251       .  A
C179        O180   1.256       .  A
C179       C1105   1.458       .  S
O180       Cr196   1.983       .  S
O181       Cr196   1.991       .  S
O181        C182   1.262       .  A
C182        O183   1.260       .  A
C182        C545   1.475       .  S
O183       Cr197   1.978       .  S
O184       Cr197   2.056       .  S
O184        C185   1.283       .  A
C185        C681   1.497       .  S
O186       Cr195   1.979       .  S
O186        C194   1.250       .  A
O187       Cr195   1.988       .  S
O187        C188   1.270       .  A
C188        O189   1.272       .  A
C188        C569   1.480       .  S
O189       Cr196   2.001       .  S
O190       Cr196   1.966       .  S
O190        C191   1.258       .  A
C191        O192   1.272       .  A
C191        C585   1.488       .  S
O192       Cr197   2.022       .  S
O193       Cr197   2.012       .  S
O193        C194   1.256       .  A
C194        C593   1.472       .  S
Cr195       O198   1.784       .  S
Cr196       O198   1.775       .  S
Cr197       O198   1.777       .  S
O199       Cr217   1.951       .  S
O199        C207   1.258       .  A
O200       Cr217   1.971       .  S
O200        C201   1.255       .  A
C201        O202   1.257       .  A
C201        C969   1.451       .  S
O202       Cr218   1.987       .  S
O203       Cr218   1.983       .  S
O203        C204   1.261       .  A
C204        O205   1.261       .  A
C204        C521   1.469       .  S
O205       Cr219   1.978       .  S
O206       Cr219   2.055       .  S
O206        C207   1.281       .  A
C207        C633   1.493       .  S
O208       Cr217   1.981       .  S
O208        C216   1.254       .  A
O209       Cr217   1.976       .  S
O209        C210   1.263       .  A
C210        O211   1.267       .  A
C210        C505   1.473       .  S
O211       Cr218   1.995       .  S
O212       Cr218   1.966       .  S
O212        C213   1.258       .  A
C213        O214   1.273       .  A
C213        C537   1.488       .  S
O214       Cr219   2.030       .  S
O215       Cr219   2.012       .  S
O215        C216   1.259       .  A
C216        C601   1.477       .  S
Cr217       O220   1.776       .  S
Cr218       O220   1.775       .  S
Cr219       O220   1.779       .  S
O221       Cr239   2.000       .  S
O221        C229   1.263       .  A
O222       Cr239   1.966       .  S
O222        C223   1.252       .  A
C223        O224   1.260       .  A
C223        C929   1.465       .  S
O224       Cr240   1.989       .  S
O225       Cr240   1.999       .  S
O225        C226   1.269       .  A
C226        O227   1.265       .  A
C226        C457   1.486       .  S
O227       Cr241   1.997       .  S
O228       Cr241   2.004       .  S
O228        C229   1.263       .  A
C229        C785   1.500       .  S
O230       Cr239   1.956       .  S
O230        C238   1.255       .  A
O231       Cr239   2.002       .  S
O231        C232   1.267       .  A
C232        O233   1.270       .  A
C232        C473   1.487       .  S
O233       Cr240   2.003       .  S
O234       Cr240   1.980       .  S
O234        C235   1.262       .  A
C235        O236   1.272       .  A
C235        C577   1.491       .  S
O236       Cr241   2.018       .  S
O237       Cr241   2.032       .  S
O237        C238   1.270       .  A
C238        C489   1.485       .  S
Cr239       O242   1.771       .  S
Cr240       O242   1.771       .  S
Cr241       O242   1.775       .  S
O243       Cr261   2.004       .  S
O243        C251   1.265       .  A
O244       Cr261   1.962       .  S
O244        C245   1.255       .  A
C245        O246   1.262       .  A
C245        C817   1.462       .  S
O246       Cr262   1.999       .  S
O247       Cr262   1.962       .  S
O247        C248   1.258       .  A
C248        O249   1.268       .  A
C248        C433   1.464       .  S
O249       Cr263   2.006       .  S
O250       Cr263   2.007       .  S
O250        C251   1.266       .  A
C251        C697   1.498       .  S
O252       Cr261   1.960       .  S
O252        C260   1.254       .  A
O253       Cr261   1.986       .  S
O253        C254   1.266       .  A
C254        O255   1.261       .  A
C254        C425   1.468       .  S
O255       Cr262   1.976       .  S
O256       Cr262   1.996       .  S
O256        C257   1.264       .  A
C257        O258   1.272       .  A
C257        C529   1.492       .  S
O258       Cr263   2.016       .  S
O259       Cr263   2.034       .  S
O259        C260   1.271       .  A
C260        C481   1.480       .  S
Cr261       O264   1.755       .  S
Cr262       O264   1.766       .  S
Cr263       O264   1.765       .  S
O265       Cr283   2.020       .  S
O265        C273   1.268       .  A
O266       Cr283   1.993       .  S
O266        C267   1.265       .  A
C267        O268   1.265       .  A
C267        C561   1.477       .  S
O268       Cr284   1.990       .  S
O269       Cr284   2.012       .  S
O269        C270   1.263       .  A
C270        O271   1.247       .  A
C270        C665   1.458       .  S
O271       Cr285   1.954       .  S
O272       Cr285   2.004       .  S
O272        C273   1.265       .  A
C273       C1089   1.504       .  S
O274       Cr283   2.041       .  S
O274        C282   1.272       .  A
O275       Cr283   2.026       .  S
O275        C276   1.279       .  A
C276        O277   1.266       .  A
C276        C385   1.498       .  S
O277       Cr284   1.994       .  S
O278       Cr284   1.972       .  S
O278        C279   1.261   1_455  A
C279        O280   1.270   1_655  A
C279        C553   1.482       .  S
O280       Cr285   2.017       .  S
O281       Cr285   1.971       .  S
O281        C282   1.257       .  A
C282        C409   1.490       .  S
Cr283       O286   1.766       .  S
Cr284       O286   1.777       .  S
Cr285       O286   1.764       .  S
O287       Cr305   2.017       .  S
O287        C295   1.267       .  A
O288       Cr305   2.001       .  S
O288        C289   1.267       .  A
C289        O290   1.259       .  A
C289        C497   1.462       .  S
O290       Cr306   1.966       .  S
O291       Cr306   1.985       .  S
O291        C292   1.257       .  A
C292        O293   1.254       .  A
C292        C617   1.453       .  S
O293       Cr307   1.964       .  S
O294       Cr307   1.999       .  S
O294        C295   1.264       .  A
C295        C953   1.500       .  S
O296       Cr305   2.039       .  S
O296        C304   1.271       .  A
O297       Cr305   2.031       .  S
O297        C298   1.277       .  A
C298        O299   1.261       .  A
C298        C377   1.496       .  S
O299       Cr306   1.980       .  S
O300       Cr306   1.976       .  S
O300        C301   1.262       .  A
C301        O302   1.267       .  A
C301        C513   1.470   1_655  S
O302       Cr307   1.997       .  S
O303       Cr307   1.969       .  S
O303        C304   1.257       .  A
C304        C401   1.495       .  S
Cr305       O308   1.769       .  S
Cr306       O308   1.776       .  S
Cr307       O308   1.763       .  S
O309       Cr327   2.041       .  S
O309        C317   1.266       .  A
O310       Cr327   1.998       .  S
O310        C311   1.265       .  A
C311        O312   1.267       .  A
C311        C465   1.490       .  S
O312       Cr328   2.001       .  S
O313       Cr328   1.986       .  S
O313        C314   1.261       .  A
C314        O315   1.256       .  A
C314        C777   1.463       .  S
O315       Cr329   1.966       .  S
O316       Cr329   1.986       .  S
O316        C317   1.258       .  A
C317        C913   1.507       .  S
O318       Cr327   2.053       .  S
O318        C326   1.276       .  A
O319       Cr327   2.037       .  S
O319        C320   1.279       .  A
C320        O321   1.262       .  A
C320        C393   1.503       .  S
O321       Cr328   1.977       .  S
O322       Cr328   2.015       .  S
O322        C323   1.270   1_455  A
C323        O324   1.260   1_655  A
C323        C449   1.484       .  S
O324       Cr329   1.980       .  S
O325       Cr329   1.961       .  S
O325        C326   1.257       .  A
C326        C361   1.492       .  S
Cr327       O330   1.775       .  S
Cr328       O330   1.771       .  S
Cr329       O330   1.769       .  S
O331       Cr349   2.001       .  S
O331        C339   1.265       .  A
O332       Cr349   2.017       .  S
O332        C333   1.270       .  A
C333        O334   1.259       .  A
C333        C417   1.465       .  S
O334       Cr350   1.947       .  S
O335       Cr350   1.993       .  S
O335        C336   1.258       .  A
C336        O337   1.253       .  A
C336        C713   1.463       .  S
O337       Cr351   1.968       .  S
O338       Cr351   2.008       .  S
O338        C339   1.266       .  A
C339        C801   1.502       .  S
O340       Cr349   2.045       .  S
O340        C348   1.273       .  A
O341       Cr349   2.025       .  S
O341        C342   1.273       .  A
C342        O343   1.260       .  A
C342        C369   1.494       .  S
O343       Cr350   1.983       .  S
O344       Cr350   1.959       .  S
O344        C345   1.261       .  A
C345        O346   1.270       .  A
C345        C441   1.468   1_655  S
O346       Cr351   2.007       .  S
O347       Cr351   1.957       .  S
O347        C348   1.255       .  A
C348        C353   1.490       .  S
Cr349       O352   1.771       .  S
Cr350       O352   1.764       .  S
Cr351       O352   1.766       .  S
C353        C354   1.410       .  A
C353        C358   1.407       .  A
C354        C355   1.398   1_655  A
C354        H363   1.083   1_655  S
C355        C356   1.400       .  A
C355        H364   1.084       .  S
C356        C362   1.413       .  A
C356        C357   1.417   1_455  A
C357        C359   1.400       .  A
C357        C358   1.414       .  A
C358        H365   1.085       .  S
C359        C360   1.399       .  A
C359        H366   1.084       .  S
C360        C361   1.410   1_655  A
C360        H367   1.083       .  S
C361        C362   1.407       .  A
C362        H368   1.085       .  S
C369        C370   1.403       .  A
C369        C374   1.419       .  A
C370        C371   1.404       .  A
C370        H379   1.083       .  S
C371        C372   1.409       .  A
C371        H380   1.084       .  S
C372        C378   1.406       .  A
C372        C373   1.407       .  A
C373        C375   1.410       .  A
C373        C374   1.407       .  A
C374        H381   1.084       .  S
C375        C376   1.406       .  A
C375        H382   1.083       .  S
C376        C377   1.403       .  A
C376        H383   1.083       .  S
C377        C378   1.419       .  A
C378        H384   1.084       .  S
C385        C386   1.402       .  A
C385        C390   1.422       .  A
C386        C387   1.403       .  A
C386        H395   1.083       .  S
C387        C388   1.408       .  A
C387        H396   1.084       .  S
C388        C394   1.406   1_565  A
C388        C389   1.407   1_565  A
C389        C391   1.412       .  A
C389        C390   1.413   1_545  A
C390        H397   1.084   1_565  S
C391        C392   1.410       .  A
C391        H398   1.083       .  S
C392        C393   1.405       .  A
C392        H399   1.082       .  S
C393        C394   1.420       .  A
C394        H400   1.084   1_545  S
C401        C402   1.410   1_655  A
C401        C406   1.410       .  A
C402        C403   1.399       .  A
C402        H411   1.083       .  S
C403        C404   1.401       .  A
C403        H412   1.084       .  S
C404        C410   1.412       .  A
C404        C405   1.415   1_455  A
C405        C407   1.403       .  A
C405        C406   1.413       .  A
C406        H413   1.084       .  S
C407        C408   1.401       .  A
C407        H414   1.084       .  S
C408        C409   1.408   1_655  A
C408        H415   1.083       .  S
C409        C410   1.409       .  A
C410        H416   1.084       .  S
C417        C418   1.404       .  A
C417        C422   1.406       .  A
C418        C419   1.385       .  A
C418        H427   1.083       .  S
C419        C420   1.396       .  A
C419        H428   1.084       .  S
C420        C426   1.387       .  A
C420        C421   1.413       .  A
C421        C423   1.405       .  A
C421        C422   1.401       .  A
C422        H429   1.084       .  S
C423        C424   1.400       .  A
C423        H430   1.083       .  S
C424        C425   1.405       .  A
C424        H431   1.083       .  S
C425        C426   1.401       .  A
C426        H432   1.085       .  S
C433        C434   1.404       .  A
C433        C438   1.401       .  A
C434        C435   1.394       .  A
C434        H443   1.083       .  S
C435        C436   1.401       .  A
C435        H444   1.084       .  S
C436        C442   1.396       .  A
C436        C437   1.414       .  A
C437        C439   1.399       .  A
C437        C438   1.395       .  A
C438        H445   1.085       .  S
C439        C440   1.392       .  A
C439        H446   1.084       .  S
C440        C441   1.405       .  A
C440        H447   1.083   1_455  S
C441        C442   1.404       .  A
C442        H448   1.084       .  S
C449        C450   1.410       .  A
C449        C454   1.404   1_545  A
C450        C451   1.394       .  A
C450        H459   1.083       .  S
C451        C452   1.397       .  A
C451        H460   1.084       .  S
C452        C458   1.407   1_545  A
C452        C453   1.417   1_545  A
C453        C455   1.399       .  A
C453        C454   1.412       .  A
C454        H461   1.084       .  S
C455        C456   1.398       .  A
C455        H462   1.084       .  S
C456        C457   1.410       .  A
C456        H463   1.083       .  S
C457        C458   1.403       .  A
C458        H464   1.084   1_565  S
C465        C466   1.410       .  A
C465        C470   1.407   1_545  A
C466        C467   1.397       .  A
C466        H475   1.083       .  S
C467        C468   1.399       .  A
C467        H476   1.084       .  S
C468        C474   1.410   1_545  A
C468        C469   1.416   1_545  A
C469        C471   1.400       .  A
C469        C470   1.411       .  A
C470        H477   1.084       .  S
C471        C472   1.398       .  A
C471        H478   1.083       .  S
C472        C473   1.409       .  A
C472        H479   1.083       .  S
C473        C474   1.405       .  A
C474        H480   1.084   1_565  S
C481        C482   1.408       .  A
C481        C486   1.403       .  A
C482        C483   1.398       .  A
C482        H491   1.083       .  S
C483        C484   1.401       .  A
C483        H492   1.084       .  S
C484        C490   1.409       .  A
C484        C485   1.416       .  A
C485        C487   1.398       .  A
C485        C486   1.406       .  A
C486        H493   1.085       .  S
C487        C488   1.395       .  A
C487        H494   1.085       .  S
C488        C489   1.409       .  A
C488        H495   1.083       .  S
C489        C490   1.406       .  A
C490        H496   1.085       .  S
C497        C498   1.401       .  A
C497        C502   1.404       .  A
C498        C499   1.391       .  A
C498        H507   1.083       .  S
C499        C500   1.400       .  A
C499        H508   1.085       .  S
C500        C506   1.393       .  A
C500        C501   1.413       .  A
C501        C503   1.403       .  A
C501        C502   1.401       .  A
C502        H509   1.085       .  S
C503        C504   1.399       .  A
C503        H510   1.084       .  S
C504        C505   1.405       .  A
C504        H511   1.082       .  S
C505        C506   1.405       .  A
C506        H512   1.085       .  S
C513        C514   1.404       .  A
C513        C518   1.402       .  A
C514        C515   1.399       .  A
C514        H523   1.083   1_455  S
C515        C516   1.404       .  A
C515        H524   1.083       .  S
C516        C522   1.403       .  A
C516        C517   1.414       .  A
C517        C519   1.399       .  A
C517        C518   1.396       .  A
C518        H525   1.085       .  S
C519        C520   1.392       .  A
C519        H526   1.084       .  S
C520        C521   1.404       .  A
C520        H527   1.083       .  S
C521        C522   1.405       .  A
C522        H528   1.084       .  S
C529        C530   1.404       .  A
C529        C534   1.414       .  A
C530        C531   1.405       .  A
C530        H539   1.083       .  S
C531        C532   1.408       .  A
C531        H540   1.083       .  S
C532        C538   1.409       .  A
C532        C533   1.410       .  A
C533        C535   1.406       .  A
C533        C534   1.405       .  A
C534        H541   1.084       .  S
C535        C536   1.401       .  A
C535        H542   1.084       .  S
C536        C537   1.403       .  A
C536        H543   1.083       .  S
C537        C538   1.414       .  A
C538        H544   1.084       .  S
C545        C546   1.404   1_545  A
C545        C550   1.406       .  A
C546        C547   1.397       .  A
C546        H555   1.084       .  S
C547        C548   1.402       .  A
C547        H556   1.083       .  S
C548        C554   1.404       .  A
C548        C549   1.414   1_565  A
C549        C551   1.402       .  A
C549        C550   1.405       .  A
C550        H557   1.084       .  S
C551        C552   1.398       .  A
C551        H558   1.083       .  S
C552        C553   1.407   1_545  A
C552        H559   1.083       .  S
C553        C554   1.406       .  A
C554        H560   1.084       .  S
C561        C562   1.406       .  A
C561        C566   1.408   1_565  A
C562        C563   1.390       .  A
C562        H571   1.083       .  S
C563        C564   1.398       .  A
C563        H572   1.084       .  S
C564        C570   1.397   1_565  A
C564        C565   1.413   1_565  A
C565        C567   1.406       .  A
C565        C566   1.410       .  A
C566        H573   1.084       .  S
C567        C568   1.404       .  A
C567        H574   1.084       .  S
C568        C569   1.406       .  A
C568        H575   1.083       .  S
C569        C570   1.405       .  A
C570        H576   1.085   1_545  S
C577        C578   1.404       .  A
C577        C582   1.414       .  A
C578        C579   1.408       .  A
C578        H587   1.083       .  S
C579        C580   1.410       .  A
C579        H588   1.083       .  S
C580        C586   1.410       .  A
C580        C581   1.409       .  A
C581        C583   1.404   1_565  A
C581        C582   1.400       .  A
C582        H589   1.084   1_565  S
C583        C584   1.397       .  A
C583        H590   1.083       .  S
C584        C585   1.403       .  A
C584        H591   1.083       .  S
C585        C586   1.417   1_545  A
C586        H592   1.084       .  S
C593        C594   1.405       .  A
C593        C598   1.400       .  A
C594        C595   1.403       .  A
C594        H603   1.083       .  S
C595        C596   1.404       .  A
C595        H604   1.084       .  S
C596        C602   1.414       .  A
C596        C597   1.417       .  A
C597        C599   1.397       .  A
C597        C598   1.405       .  A
C598        H605   1.085       .  S
C599        C600   1.392       .  A
C599        H606   1.084       .  S
C600        C601   1.404       .  A
C600        H607   1.080       .  S
C601        C602   1.406       .  A
C602        H608   1.084       .  S
C609        C610   1.400       .  A
C609        C614   1.402       .  A
C610        C611   1.390       .  A
C610        H619   1.084       .  S
C611        C612   1.400   1_455  A
C611        H620   1.084       .  S
C612        C618   1.389       .  A
C612        C613   1.413       .  A
C613        C615   1.403       .  A
C613        C614   1.395   1_655  A
C614        H621   1.085       .  S
C615        C616   1.396       .  A
C615        H622   1.084       .  S
C616        C617   1.402       .  A
C616        H623   1.083       .  S
C617        C618   1.399       .  A
C618        H624   1.086       .  S
C625        C626   1.406       .  A
C625        C630   1.414       .  A
C626        C627   1.399       .  A
C626        H635   1.083       .  S
C627        C628   1.403       .  A
C627        H636   1.083       .  S
C628        C634   1.406       .  A
C628        C629   1.412       .  A
C629        C631   1.409       .  A
C629        C630   1.414       .  A
C630        H637   1.084       .  S
C631        C632   1.407       .  A
C631        H638   1.083       .  S
C632        C633   1.405       .  A
C632        H639   1.083       .  S
C633        C634   1.412       .  A
C634        H640   1.084       .  S
C641        C642   1.402       .  A
C641        C646   1.410       .  A
C642        C643   1.401       .  A
C642        H651   1.084       .  S
C643        C644   1.405       .  A
C643        H652   1.083       .  S
C644        C650   1.407   1_655  A
C644        C645   1.413   1_655  A
C645        C647   1.406       .  A
C645        C646   1.410   1_455  A
C646        H653   1.084   1_655  S
C647        C648   1.404       .  A
C647        H654   1.083       .  S
C648        C649   1.406       .  A
C648        H655   1.083       .  S
C649        C650   1.410       .  A
C650        H656   1.084   1_455  S
C657        C658   1.401       .  A
C657        C662   1.400   1_545  A
C658        C659   1.396       .  A
C658        H667   1.084       .  S
C659        C660   1.403   1_545  A
C659        H668   1.084       .  S
C660        C666   1.397   1_655  A
C660        C661   1.414       .  A
C661        C663   1.401   1_655  A
C661        C662   1.395       .  A
C662        H669   1.085       .  S
C663        C664   1.393       .  A
C663        H670   1.084       .  S
C664        C665   1.403       .  A
C664        H671   1.084       .  S
C665        C666   1.403       .  A
C666        H672   1.085   1_465  S
C673        C674   1.406       .  A
C673        C678   1.417       .  A
C674        C675   1.404       .  A
C674        H683   1.084       .  S
C675        C676   1.407       .  A
C675        H684   1.082       .  S
C676        C682   1.411       .  A
C676        C677   1.411       .  A
C677        C679   1.409       .  A
C677        C678   1.414       .  A
C678        H685   1.083       .  S
C679        C680   1.407       .  A
C679        H686   1.082       .  S
C680        C681   1.405       .  A
C680        H687   1.084       .  S
C681        C682   1.416       .  A
C682        H688   1.083       .  S
C689        C690   1.409       .  A
C689        C694   1.411       .  A
C690        C691   1.400   1_554  A
C690        H699   1.083       .  S
C691        C692   1.401       .  A
C691        H700   1.084       .  S
C692        C698   1.414       .  A
C692        C693   1.415   1_556  A
C693        C695   1.403   1_554  A
C693        C694   1.416       .  A
C694        H701   1.084       .  S
C695        C696   1.403       .  A
C695        H702   1.083   1_556  S
C696        C697   1.410       .  A
C696        H703   1.083       .  S
C697        C698   1.410       .  A
C698        H704   1.084       .  S
C705        C706   1.404       .  A
C705        C710   1.404   1_455  A
C706        C707   1.392   1_455  A
C706        H715   1.083       .  S
C707        C708   1.399   1_554  A
C707        H716   1.084       .  S
C708        C714   1.396       .  A
C708        C709   1.414       .  A
C709        C711   1.402       .  A
C709        C710   1.399   1_556  A
C710        H717   1.084       .  S
C711        C712   1.396       .  A
C711        H718   1.083       .  S
C712        C713   1.404       .  A
C712        H719   1.083       .  S
C713        C714   1.401       .  A
C714        H720   1.085       .  S
C721        C722   1.403       .  A
C721        C726   1.418       .  A
C722        C723   1.399       .  A
C722        H731   1.083       .  S
C723        C724   1.405       .  A
C723        H732   1.084       .  S
C724        C730   1.400       .  A
C724        C725   1.408       .  A
C725        C727   1.410       .  A
C725        C726   1.408       .  A
C726        H733   1.083       .  S
C727        C728   1.407       .  A
C727        H734   1.083       .  S
C728        C729   1.404       .  A
C728        H735   1.083       .  S
C729        C730   1.415       .  A
C730        H736   1.084       .  S
C737        C738   1.403       .  A
C737        C742   1.414       .  A
C738        C739   1.406       .  A
C738        H747   1.083       .  S
C739        C740   1.410       .  A
C739        H748   1.084       .  S
C740        C746   1.408       .  A
C740        C741   1.409   1_565  A
C741        C743   1.406       .  A
C741        C742   1.403   1_545  A
C742        H749   1.085   1_565  S
C743        C744   1.401       .  A
C743        H750   1.084       .  S
C744        C745   1.404       .  A
C744        H751   1.083       .  S
C745        C746   1.416   1_545  A
C746        H752   1.084       .  S
C753        C754   1.405       .  A
C753        C758   1.410       .  A
C754        C755   1.399       .  A
C754        H763   1.083       .  S
C755        C756   1.403       .  A
C755        H764   1.084       .  S
C756        C762   1.405       .  A
C756        C757   1.412       .  A
C757        C759   1.404   1_655  A
C757        C758   1.407       .  A
C758        H765   1.084       .  S
C759        C760   1.401       .  A
C759        H766   1.084       .  S
C760        C761   1.406       .  A
C760        H767   1.083       .  S
C761        C762   1.410   1_455  A
C762        H768   1.084       .  S
C769        C770   1.405   1_565  A
C769        C774   1.401       .  A
C770        C771   1.394       .  A
C770        H779   1.083       .  S
C771        C772   1.401   1_554  A
C771        H780   1.083       .  S
C772        C778   1.396   1_655  A
C772        C773   1.414   1_545  A
C773        C775   1.399   1_655  A
C773        C774   1.394   1_556  A
C774        H781   1.085       .  S
C775        C776   1.392       .  A
C775        H782   1.084       .  S
C776        C777   1.404   1_565  A
C776        H783   1.084       .  S
C777        C778   1.404       .  A
C778        H784   1.084       .  S
C785        C786   1.408       .  A
C785        C790   1.414       .  A
C786        C787   1.405       .  A
C786        H795   1.083       .  S
C787        C788   1.406       .  A
C787        H796   1.083       .  S
C788        C794   1.416   1_556  A
C788        C789   1.413       .  A
C789        C791   1.405   1_556  A
C789        C790   1.414       .  A
C790        H797   1.083       .  S
C791        C792   1.403       .  A
C791        H798   1.083       .  S
C792        C793   1.407       .  A
C792        H799   1.084       .  S
C793        C794   1.415       .  A
C794        H800   1.083       .  S
C801        C802   1.408       .  A
C801        C806   1.416       .  A
C802        C803   1.403       .  A
C802        H811   1.083       .  S
C803        C804   1.405       .  A
C803        H812   1.083       .  S
C804        C810   1.414   1_556  A
C804        C805   1.412       .  A
C805        C807   1.407   1_556  A
C805        C806   1.417       .  A
C806        H813   1.083       .  S
C807        C808   1.406       .  A
C807        H814   1.082       .  S
C808        C809   1.408       .  A
C808        H815   1.083       .  S
C809        C810   1.414       .  A
C810        H816   1.083       .  S
C817        C818   1.403       .  A
C817        C822   1.403       .  A
C818        C819   1.394       .  A
C818        H827   1.083       .  S
C819        C820   1.402       .  A
C819        H828   1.083       .  S
C820        C826   1.395   1_556  A
C820        C821   1.413       .  A
C821        C823   1.402   1_556  A
C821        C822   1.395       .  A
C822        H829   1.085       .  S
C823        C824   1.394       .  A
C823        H830   1.083       .  S
C824        C825   1.402       .  A
C824        H831   1.083       .  S
C825        C826   1.403       .  A
C826        H832   1.085       .  S
C833        C834   1.406       .  A
C833        C838   1.407       .  A
C834        C835   1.391       .  A
C834        H843   1.083       .  S
C835        C836   1.399       .  A
C835        H844   1.084       .  S
C836        C842   1.396       .  A
C836        C837   1.413       .  A
C837        C839   1.404       .  A
C837        C838   1.405       .  A
C838        H845   1.084       .  S
C839        C840   1.401       .  A
C839        H846   1.083       .  S
C840        C841   1.405       .  A
C840        H847   1.083       .  S
C841        C842   1.406       .  A
C842        H848   1.084       .  S
C849        C850   1.403       .  A
C849        C854   1.405       .  A
C850        C851   1.398       .  A
C850        H859   1.083       .  S
C851        C852   1.404       .  A
C851        H860   1.084       .  S
C852        C858   1.400       .  A
C852        C853   1.412       .  A
C853        C855   1.401       .  A
C853        C854   1.397       .  A
C854        H861   1.085       .  S
C855        C856   1.394       .  A
C855        H862   1.084       .  S
C856        C857   1.404       .  A
C856        H863   1.083       .  S
C857        C858   1.408       .  A
C858        H864   1.084       .  S
C865        C866   1.404   1_565  A
C865        C870   1.406       .  A
C866        C867   1.393       .  A
C866        H875   1.083       .  S
C867        C868   1.400       .  A
C867        H876   1.084       .  S
C868        C874   1.395       .  A
C868        C869   1.412   1_545  A
C869        C871   1.403       .  A
C869        C870   1.399       .  A
C870        H877   1.084       .  S
C871        C872   1.397       .  A
C871        H878   1.084       .  S
C872        C873   1.405   1_565  A
C872        H879   1.083       .  S
C873        C874   1.405       .  A
C874        H880   1.085       .  S
C881        C882   1.404   1_545  A
C881        C886   1.406       .  A
C882        C883   1.395       .  A
C882        H891   1.083       .  S
C883        C884   1.401       .  A
C883        H892   1.084       .  S
C884        C890   1.399       .  A
C884        C885   1.413   1_565  A
C885        C887   1.403       .  A
C885        C886   1.403       .  A
C886        H893   1.084       .  S
C887        C888   1.398   1_545  A
C887        H894   1.084       .  S
C888        C889   1.405       .  A
C888        H895   1.083       .  S
C889        C890   1.407       .  A
C890        H896   1.085       .  S
C897        C898   1.411       .  A
C897        C902   1.406       .  A
C898        C899   1.397       .  A
C898        H907   1.083       .  S
C899        C900   1.399       .  A
C899        H908   1.084       .  S
C900        C906   1.413       .  A
C900        C901   1.417       .  A
C901        C903   1.399       .  A
C901        C902   1.414       .  A
C902        H909   1.084       .  S
C903        C904   1.399       .  A
C903        H910   1.084       .  S
C904        C905   1.412       .  A
C904        H911   1.083       .  S
C905        C906   1.405       .  A
C906        H912   1.085       .  S
C913        C914   1.412       .  A
C913        C918   1.414       .  A
C914        C915   1.400   1_556  A
C914        H923   1.083       .  S
C915        C916   1.400       .  A
C915        H924   1.084       .  S
C916        C922   1.417       .  A
C916        C917   1.416   1_554  A
C917        C919   1.404       .  A
C917        C918   1.424       .  A
C918        H925   1.083       .  S
C919        C920   1.407   1_556  A
C919        H926   1.083       .  S
C920        C921   1.412       .  A
C920        H927   1.083       .  S
C921        C922   1.411       .  A
C922        H928   1.084       .  S
C929        C930   1.404       .  A
C929        C934   1.405       .  A
C930        C931   1.396   1_556  A
C930        H939   1.083       .  S
C931        C932   1.403       .  A
C931        H940   1.084       .  S
C932        C938   1.396       .  A
C932        C933   1.412   1_564  A
C933        C935   1.401       .  A
C933        C934   1.392   1_545  A
C934        H941   1.085   1_565  S
C935        C936   1.392   1_556  A
C935        H942   1.084       .  S
C936        C937   1.403       .  A
C936        H943   1.083   1_554  S
C937        C938   1.405   1_545  A
C938        H944   1.085       .  S
C945        C946   1.410       .  A
C945        C950   1.411       .  A
C946        C947   1.401       .  A
C946        H955   1.083       .  S
C947        C948   1.402       .  A
C947        H956   1.084       .  S
C948        C954   1.416       .  A
C948        C949   1.415       .  A
C949        C951   1.402       .  A
C949        C950   1.416       .  A
C950        H957   1.084       .  S
C951        C952   1.402       .  A
C951        H958   1.083       .  S
C952        C953   1.411       .  A
C952        H959   1.083       .  S
C953        C954   1.410       .  A
C954        H960   1.084       .  S
C961        C962   1.403       .  A
C961        C966   1.404       .  A
C962        C963   1.397       .  A
C962        H971   1.083       .  S
C963        C964   1.404       .  A
C963        H972   1.084       .  S
C964        C970   1.397       .  A
C964        C965   1.413       .  A
C965        C967   1.403       .  A
C965        C966   1.395       .  A
C966        H973   1.085       .  S
C967        C968   1.395       .  A
C967        H974   1.085       .  S
C968        C969   1.400       .  A
C968        H975   1.083       .  S
C969        C970   1.403       .  A
C970        H976   1.086       .  S
C977        C978   1.407       .  A
C977        C982   1.406       .  A
C978        C979   1.399       .  A
C978        H987   1.083       .  S
C979        C980   1.402       .  A
C979        H988   1.084       .  S
C980        C986   1.409       .  A
C980        C981   1.415       .  A
C981        C983   1.401       .  A
C981        C982   1.408       .  A
C982        H989   1.084       .  S
C983        C984   1.398       .  A
C983        H990   1.084       .  S
C984        C985   1.407       .  A
C984        H991   1.083       .  S
C985        C986   1.407       .  A
C986        H992   1.084       .  S
C993        C994   1.406       .  A
C993        C998   1.408       .  A
C994        C995   1.397       .  A
C994       H1003   1.083       .  S
C995        C996   1.402       .  A
C995       H1004   1.084       .  S
C996       C1002   1.403       .  A
C996        C997   1.413       .  A
C997        C999   1.402       .  A
C997        C998   1.403       .  A
C998       H1005   1.084       .  S
C999       C1000   1.397       .  A
C999       H1006   1.084       .  S
C1000      C1001   1.407       .  A
C1000      H1007   1.083       .  S
C1001      C1002   1.407       .  A
C1002      H1008   1.084       .  S
C1009      C1010   1.403       .  A
C1009      C1014   1.418       .  A
C1010      C1011   1.402       .  A
C1010      H1019   1.083       .  S
C1011      C1012   1.406       .  A
C1011      H1020   1.084       .  S
C1012      C1018   1.405       .  A
C1012      C1013   1.408       .  A
C1013      C1015   1.410       .  A
C1013      C1014   1.410       .  A
C1014      H1021   1.084       .  S
C1015      C1016   1.408       .  A
C1015      H1022   1.083       .  S
C1016      C1017   1.404       .  A
C1016      H1023   1.083       .  S
C1017      C1018   1.416       .  A
C1018      H1024   1.084       .  S
C1025      C1026   1.407       .  A
C1025      C1030   1.407       .  A
C1026      C1027   1.405       .  A
C1026      H1035   1.083       .  S
C1027      C1028   1.407       .  A
C1027      H1036   1.083       .  S
C1028      C1034   1.411       .  A
C1028      C1029   1.412       .  A
C1029      C1031   1.399   1_565  A
C1029      C1030   1.400       .  A
C1030      H1037   1.085   1_565  S
C1031      C1032   1.393       .  A
C1031      H1038   1.084       .  S
C1032      C1033   1.407       .  A
C1032      H1039   1.083       .  S
C1033      C1034   1.412   1_545  A
C1034      H1040   1.084       .  S
C1041      C1042   1.405       .  A
C1041      C1046   1.407   1_545  A
C1042      C1043   1.402       .  A
C1042      H1051   1.083       .  S
C1043      C1044   1.405       .  A
C1043      H1052   1.084       .  S
C1044      C1050   1.409   1_545  A
C1044      C1045   1.413   1_545  A
C1045      C1047   1.401       .  A
C1045      C1046   1.403       .  A
C1046      H1053   1.084       .  S
C1047      C1048   1.396       .  A
C1047      H1054   1.084       .  S
C1048      C1049   1.408       .  A
C1048      H1055   1.083       .  S
C1049      C1050   1.410       .  A
C1050      H1056   1.084   1_565  S
C1057      C1058   1.404       .  A
C1057      C1062   1.418       .  A
C1058      C1059   1.406       .  A
C1058      H1067   1.083       .  S
C1059      C1060   1.409       .  A
C1059      H1068   1.084       .  S
C1060      C1066   1.409       .  A
C1060      C1061   1.408   1_565  A
C1061      C1063   1.409       .  A
C1061      C1062   1.409   1_545  A
C1062      H1069   1.084   1_565  S
C1063      C1064   1.406       .  A
C1063      H1070   1.084       .  S
C1064      C1065   1.404       .  A
C1064      H1071   1.083       .  S
C1065      C1066   1.418   1_545  A
C1066      H1072   1.084       .  S
C1073      C1074   1.406       .  A
C1073      C1078   1.403       .  A
C1074      C1075   1.401       .  A
C1074      H1083   1.083       .  S
C1075      C1076   1.403       .  A
C1075      H1084   1.084       .  S
C1076      C1082   1.415       .  A
C1076      C1077   1.417       .  A
C1077      C1079   1.398       .  A
C1077      C1078   1.410       .  A
C1078      H1085   1.085       .  S
C1079      C1080   1.396       .  A
C1079      H1086   1.084       .  S
C1080      C1081   1.411       .  A
C1080      H1087   1.083       .  S
C1081      C1082   1.409       .  A
C1082      H1088   1.085       .  S
C1089      C1090   1.412       .  A
C1089      C1094   1.410       .  A
C1090      C1091   1.405       .  A
C1090      H1099   1.083       .  S
C1091      C1092   1.403       .  A
C1091      H1100   1.083       .  S
C1092      C1098   1.422       .  A
C1092      C1093   1.417       .  A
C1093      C1095   1.400       .  A
C1093      C1094   1.418       .  A
C1094      H1101   1.084       .  S
C1095      C1096   1.400       .  A
C1095      H1102   1.083       .  S
C1096      C1097   1.411       .  A
C1096      H1103   1.084       .  S
C1097      C1098   1.412       .  A
C1098      H1104   1.083       .  S
C1105      C1106   1.400   1_545  A
C1105      C1110   1.406       .  A
C1106      C1107   1.394       .  A
C1106      H1115   1.083       .  S
C1107      C1108   1.403       .  A
C1107      H1116   1.084       .  S
C1108      C1114   1.389       .  A
C1108      C1109   1.410   1_565  A
C1109      C1111   1.404       .  A
C1109      C1110   1.390       .  A
C1110      H1117   1.085       .  S
C1111      C1112   1.395       .  A
C1111      H1118   1.084       .  S
C1112      C1113   1.399   1_545  A
C1112      H1119   1.083       .  S
C1113      C1114   1.405       .  A
C1114      H1120   1.085       .  S
