geometry optimzed in LAMMPS
_audit_creation_date              2020-12-01 
_audit_creation_method            'lammps2cif' 
_symmetry_space_group_name_H-M    'P1' 
_symmetry_Int_Tables_number       1 
_symmetry_cell_setting            triclinic 
loop_ 
_symmetry_equiv_pos_as_xyz 
  x,y,z 
_cell_length_a                    44.780082 
_cell_length_b                    33.77512634190774 
_cell_length_c                    44.42120373300869 
_cell_angle_alpha                 89.89537340434126 
_cell_angle_beta                  111.56985617749615 
_cell_angle_gamma                 89.71032134524191 
loop_ 
_atom_site_label 
_atom_site_type_symbol 
_atom_site_fract_x 
_atom_site_fract_y 
_atom_site_fract_z 
_atom_site_charge 
Fe1        Fe  0.30094219  0.84704863  0.13517011     1.65800
Fe2        Fe  0.34791984  0.85994687  0.09058126     1.73200
Fe3        Fe  0.34026814  0.76794326  0.11872113     1.54400
O4          O  0.35303691  0.76822763  0.16815910    -0.82200
O5          O  0.34638774  0.81840678  0.05743376    -0.80500
O6          O  0.32519001  0.81765762  0.17925068    -0.84700
O7          O  0.26938968  0.80146294  0.12149547    -0.79500
O8          O  0.38755548  0.77887221  0.12358731    -0.81300
O9          O  0.30255283  0.87693163  0.06083144    -0.84100
C10         C  0.27007171  0.76482110  0.11623886     0.96700
C11         C  0.34318163  0.78682871  0.18765820     1.04100
O12         O  0.33004374  0.82496344  0.11538809    -1.13000
O13         O  0.35327045  0.90813848  0.11971460    -0.75500
O14         O  0.32796052  0.89730206  0.15323398    -0.79000
O15         O  0.29462037  0.74786679  0.11416708    -0.79700
C16         C  0.34556561  0.91854423  0.14311498     0.95600
O17         O  0.27245678  0.87469219  0.09115602    -0.77600
O18         O  0.39469803  0.84324389  0.11657209    -0.82800
C19         C  0.33769943  0.78302281  0.05118921     0.98200
C20         C  0.40517825  0.80789858  0.12236575     1.04100
O21         O  0.32824046  0.76178565  0.06948536    -0.78500
C22         C  0.27564778  0.88038536  0.06394660     1.02400
Fe23       Fe  0.16274631  0.84010137  0.36872138     1.65800
Fe24       Fe  0.10851868  0.85563014  0.40475899     1.73200
Fe25       Fe  0.12127129  0.76311696  0.38316998     1.54400
O26         O  0.11052074  0.76236294  0.33436632    -0.82200
O27         O  0.10516981  0.81416049  0.43696314    -0.80500
O28         O  0.14229218  0.80781004  0.32485151    -0.84700
O29         O  0.19507998  0.79559951  0.38775082    -0.79500
O30         O  0.07317029  0.77423397  0.37583411    -0.81300
O31         O  0.15175857  0.87195183  0.43840030    -0.84100
C32         C  0.19330325  0.75881362  0.39137139     0.96700
C33         C  0.12261754  0.77860936  0.31572191     1.04100
O34         O  0.13065255  0.81973988  0.38485626    -1.13000
O35         O  0.10799447  0.90412764  0.37658290    -0.75500
O36         O  0.13618301  0.88949924  0.34638434    -0.79000
O37         O  0.16738063  0.74224609  0.38974071    -0.79700
C38         C  0.11911207  0.91335986  0.35517631     0.95600
O39         O  0.18647877  0.87025921  0.41306629    -0.77600
O40         O  0.06373549  0.83930750  0.37351594    -0.82800
C41         C  0.11777794  0.78084059  0.44706680     0.98200
C42         C  0.05415936  0.80374591  0.37172808     1.04100
O43         O  0.13194357  0.76034387  0.43236875    -0.78500
C44         C  0.17993587  0.87602386  0.43860691     1.02400
Fe45       Fe  0.41273538  0.65280989  0.36736366     1.65800
Fe46       Fe  0.36336688  0.64220137  0.40931024     1.73200
Fe47       Fe  0.37224862  0.73213996  0.38042246     1.54400
O48         O  0.41583066  0.75136213  0.37867460    -0.82200
O49         O  0.31690872  0.65909969  0.38105291    -0.80500
O50         O  0.44549649  0.69740289  0.38343004    -0.84700
O51         O  0.39028830  0.68358895  0.32336736    -0.79500
O52         O  0.38839818  0.73961612  0.43000223    -0.81300
O53         O  0.35977659  0.59203008  0.38183111    -0.84100
C54         C  0.36932394  0.71144769  0.31322362     0.96700
C55         C  0.44152121  0.73436553  0.37979075     1.04100
O56         O  0.38260652  0.67548770  0.38516539    -1.13000
O57         O  0.40805761  0.62536088  0.44070060    -0.75500
O58         O  0.43882381  0.62327219  0.41114136    -0.79000
O59         O  0.35579609  0.72742926  0.33094109    -0.79700
C60         C  0.43502440  0.61917759  0.43815876     0.95600
O61         O  0.38486400  0.60371949  0.34815039    -0.77600
O62         O  0.36468939  0.68655456  0.44087549    -0.82800
C63         C  0.30801290  0.69495524  0.38078109     0.98200
C64         C  0.37685132  0.72064306  0.44797461     1.04100
O65         O  0.32648363  0.72356252  0.38100555    -0.78500
C66         C  0.36886088  0.58113214  0.35925101     1.02400
Fe67       Fe  0.05138165  0.65062919  0.13734216     1.65800
Fe68       Fe  0.09753800  0.63703874  0.09330510     1.73200
Fe69       Fe  0.08675892  0.72985944  0.11836022     1.54400
O70         O  0.03915184  0.74691513  0.10821675    -0.82200
O71         O  0.14210640  0.66460800  0.10788014    -0.80500
O72         O  0.02445920  0.70047978  0.13463762    -0.84700
O73         O  0.08235945  0.67095798  0.18251038    -0.79500
O74         O  0.07918602  0.73342649  0.06948458    -0.81300
O75         O  0.11519209  0.59850376  0.13176321    -0.84100
C76         C  0.09439338  0.70584336  0.18923963     0.96700
C77         C  0.02086534  0.73452167  0.12219799     1.04100
O78         O  0.07922070  0.67292647  0.11671236    -1.13000
O79         O  0.05431814  0.60645368  0.07282167    -0.75500
O80         O  0.01952323  0.63466785  0.09138102    -0.79000
O81         O  0.09560757  0.73014194  0.16765717    -0.79700
C82         C  0.02580530  0.61742855  0.06882163     0.95600
O83         O  0.07249689  0.59455130  0.14482432    -0.77600
O84         O  0.08253983  0.67155321  0.05315266    -0.82800
C85         C  0.15205769  0.69870699  0.11905216     0.98200
C86         C  0.07930569  0.70844101  0.04808325     1.04100
O87         O  0.13531256  0.72271948  0.12834813    -0.78500
C88         C  0.09808364  0.57938174  0.14377069     1.02400
Fe89       Fe  0.31418725  0.15919734  0.13542046     1.65800
Fe90       Fe  0.36570955  0.14106273  0.09681979     1.73200
Fe91       Fe  0.36114948  0.23254809  0.12594214     1.54400
O92         O  0.31817858  0.25660268  0.12715603    -0.82200
O93         O  0.41282808  0.15398785  0.12530766    -0.80500
O94         O  0.28452007  0.20637389  0.11635838    -0.84700
O95         O  0.33618491  0.18985253  0.17948654    -0.79500
O96         O  0.34681731  0.24073836  0.07664682    -0.81300
O97         O  0.36613991  0.09245715  0.12525102    -0.84100
C98         C  0.35979284  0.21386208  0.19135433     0.96700
C99         C  0.29080667  0.24233574  0.12313123     1.04100
O100        O  0.34731753  0.17723885  0.11991549    -1.13000
O101        O  0.32098207  0.12695450  0.06443447    -0.75500
O102        O  0.28821019  0.12983083  0.09169095    -0.79000
O103        O  0.37606774  0.22618607  0.17508588    -0.79700
C104        C  0.29324094  0.12348472  0.06556387     0.95600
O105        O  0.33904483  0.10852827  0.15652354    -0.77600
O106        O  0.36672397  0.18424406  0.06514864    -0.82800
C107        C  0.42431319  0.18874683  0.12831819     0.98200
C108        C  0.35640113  0.21934958  0.05835612     1.04100
O109        O  0.40720350  0.21926368  0.12737859    -0.78500
C110        C  0.35503618  0.08390889  0.14695407     1.02400
Fe111      Fe  0.17252195  0.14908532  0.36987779     1.65800
Fe112      Fe  0.12486742  0.13310570  0.41180817     1.73200
Fe113      Fe  0.14047059  0.22723729  0.39357747     1.54400
O114        O  0.18924797  0.23914851  0.40781756    -0.82200
O115        O  0.08156939  0.16397308  0.39734291    -0.80500
O116        O  0.20027041  0.19842523  0.37457113    -0.84700
O117        O  0.14192344  0.17309040  0.32656203    -0.79500
O118        O  0.14504826  0.22630786  0.44193031    -0.81300
O119        O  0.10699346  0.09836730  0.37092150    -0.84100
C120        C  0.13442353  0.20986523  0.32179671     0.96700
C121        C  0.20608242  0.22937773  0.39148931     1.04100
O122        O  0.14526299  0.17020636  0.39156856    -1.13000
O123        O  0.16739664  0.10008937  0.43118235    -0.75500
O124        O  0.20337261  0.12913956  0.41468075    -0.79000
O125        O  0.13478609  0.23295994  0.34478566    -0.79700
C126        C  0.19620970  0.11049472  0.43608118     0.95600
O127        O  0.15056234  0.09423209  0.35945585    -0.77600
O128        O  0.13899858  0.16330273  0.45427061    -0.82800
C129        C  0.07324166  0.19923579  0.38758442     0.98200
C130        C  0.14275544  0.19963784  0.46128301     1.04100
O131        O  0.09142359  0.22313258  0.38035973    -0.78500
C132        C  0.12412694  0.07989781  0.35844131     1.02400
Fe133      Fe  0.42091183  0.34585452  0.37054181     1.65800
Fe134      Fe  0.37267028  0.35303772  0.41374157     1.73200
Fe135      Fe  0.38310100  0.26423643  0.38376968     1.54400
O136        O  0.36794701  0.26879199  0.33437673    -0.82200
O137        O  0.37422850  0.30830771  0.44486006    -0.80500
O138        O  0.40059328  0.31450973  0.32686109    -0.84700
O139        O  0.45516689  0.30294617  0.38792718    -0.79500
O140        O  0.33623035  0.27211998  0.38185060    -0.81300
O141        O  0.41710580  0.36901983  0.44516944    -0.84100
C142        C  0.45407481  0.26556188  0.38806347     0.96700
C143        C  0.38055633  0.28608628  0.31659044     1.04100
O144        O  0.39197648  0.32111373  0.38881304    -1.13000
O145        O  0.36812098  0.40343658  0.38669377    -0.75500
O146        O  0.39027898  0.39323728  0.35034197    -0.79000
O147        O  0.42854145  0.24713264  0.38521770    -0.79700
C148        C  0.37397639  0.41449545  0.36227714     0.95600
O149        O  0.44586207  0.37636722  0.41388899    -0.77600
O150        O  0.32683926  0.33662246  0.38530832    -0.82800
C151        C  0.38684257  0.27436104  0.45151023     0.98200
C152        C  0.31772608  0.30081765  0.38199297     1.04100
O153        O  0.39778788  0.25547397  0.43307909    -0.78500
C154        C  0.44310947  0.37732826  0.44158217     1.02400
Fe155      Fe  0.06518454  0.33530221  0.13579735     1.65800
Fe156      Fe  0.11999933  0.34857398  0.10036923     1.73200
Fe157      Fe  0.11443032  0.26026206  0.13319852     1.54400
O158        O  0.12674106  0.27091816  0.18128434    -0.82200
O159        O  0.12555733  0.30207707  0.07314894    -0.80500
O160        O  0.08546527  0.30791342  0.18210133    -0.84700
O161        O  0.03610015  0.28748098  0.11817628    -0.79500
O162        O  0.16123448  0.27307217  0.13700056    -0.81300
O163        O  0.07621124  0.35972017  0.06474681    -0.84100
C164        C  0.04224960  0.25151265  0.12566742     0.96700
C165        C  0.10918238  0.28427547  0.19587007     1.04100
O166        O  0.09989856  0.31501542  0.12342083    -1.13000
O167        O  0.11697832  0.40006944  0.12422898    -0.75500
O168        O  0.08903908  0.38686638  0.15512927    -0.79000
O169        O  0.07028320  0.23713000  0.13227976    -0.79700
C170        C  0.10503331  0.41052316  0.14486918     0.95600
O171        O  0.04116164  0.36148891  0.08963114    -0.77600
O172        O  0.16600959  0.33811727  0.13312782    -0.82800
C173        C  0.11645388  0.26637205  0.06785540     0.98200
C174        C  0.17821058  0.30353976  0.13810767     1.04100
O175        O  0.10353468  0.24806752  0.08497773    -0.78500
C176        C  0.04784346  0.36434873  0.06398946     1.02400
C177        C  0.50084554  0.36549994  0.47263722    -0.20800
C178        C  0.47211055  0.38317274  0.47158644    -0.07400
C179        C  0.46695515  0.39567814  0.00039578     0.13500
C180        C  0.49338392  0.39117252  0.02993117    -0.20900
C181        C  0.02164997  0.37190991  0.03152023    -0.07400
C182        C  0.02385650  0.35826063  0.00199848     0.13500
C183        C  0.05310223  0.33672794  0.00091204    -0.24200
H184        H  0.50213575  0.35349574  0.45052598     0.14800
H185        H  0.49167330  0.40259091  0.05202753     0.14800
C186        C  0.43790252  0.41836432  0.00053445    -0.24200
H187        H  0.05207828  0.32745307  0.47586083     0.05000
H188        H  0.05822619  0.31018185  0.01683001     0.08200
H189        H  0.07411563  0.35677318  0.00857135     0.08200
H190        H  0.42035487  0.40221911  0.49477968     0.08200
H191        H  0.43654021  0.44642165  0.48352851     0.08200
H192        H  0.44209253  0.43174873  0.02455886     0.05000
C193        C  0.13114523  0.23037813  0.23598918    -0.20800
C194        C  0.11556351  0.26752241  0.22891357    -0.07400
C195        C  0.10568272  0.28526787  0.25256231     0.13500
C196        C  0.11118228  0.26512923  0.28202750    -0.20900
C197        C  0.12663114  0.22775948  0.28889049    -0.07400
C198        C  0.13716212  0.21061778  0.26540387     0.13500
C199        C  0.15584942  0.17218482  0.27111676    -0.24200
H200        H  0.13869529  0.21612987  0.21810945     0.14800
H201        H  0.10359078  0.27903003  0.30001514     0.14800
C202        C  0.09039377  0.32579541  0.24755152    -0.24200
H203        H  0.16326859  0.16448037  0.25057280     0.05000
H204        H  0.14083604  0.14749757  0.27397959     0.08200
H205        H  0.17808448  0.17466916  0.29301580     0.08200
H206        H  0.06679463  0.32528110  0.22726628     0.08200
H207        H  0.10636730  0.34746630  0.24220365     0.08200
H208        H  0.08619970  0.33614133  0.26939656     0.05000
C209        C  0.10960537  0.20333030  0.49421320    -0.20800
C210        C  0.13930405  0.21149367  0.49153394    -0.07400
C211        C  0.16275911  0.23280265  0.51602998     0.13500
C212        C  0.15078290  0.25854549  0.03581978    -0.20900
C213        C  0.12343355  0.24614721  0.04185041    -0.07400
C214        C  0.10363146  0.21644164  0.02245761     0.13500
C215        C  0.07419532  0.20174420  0.02774163    -0.24200
H216        H  0.09172379  0.18675246  0.47519851     0.14800
H217        H  0.16676138  0.28040068  0.05134296     0.14800
C218        C  0.19592619  0.23993344  0.51598659    -0.24200
H219        H  0.05383312  0.19327625  0.49929799     0.05000
H220        H  0.05774768  0.22693305  0.02651493     0.08200
H221        H  0.08126584  0.18693293  0.05169623     0.08200
H222        H  0.19980967  0.22584041  0.49518407     0.08200
H223        H  0.21406126  0.22750479  0.53850222     0.08200
H224        H  0.18635693  0.28988409  0.00088825     0.05000
C225        C  0.23387811  0.26056107  0.35893386    -0.20800
C226        C  0.23228541  0.25468014  0.38973328    -0.07400
C227        C  0.25729172  0.26890873  0.41737977     0.13500
C228        C  0.28386942  0.28717002  0.41358778    -0.20900
C229        C  0.28615874  0.29081063  0.38295493    -0.07400
C230        C  0.26068293  0.27806324  0.35528519     0.13500
C231        C  0.26232400  0.28174137  0.32215728    -0.24200
H232        H  0.21455924  0.24981954  0.33765384     0.14800
H233        H  0.30394221  0.29635690  0.43485583     0.14800
C234        C  0.25715393  0.26234395  0.45087450    -0.24200
H235        H  0.24020586  0.27055748  0.30297714     0.05000
H236        H  0.28302167  0.26431316  0.32124677     0.08200
H237        H  0.26534834  0.31330072  0.31689939     0.08200
H238        H  0.25577547  0.23015844  0.45532277     0.08200
H239        H  0.23618144  0.27768869  0.45329590     0.08200
H240        H  0.27925113  0.27396395  0.46982315     0.05000
C241        C  0.51306763  0.26399703  0.40611500    -0.20800
C242        C  0.48405209  0.24406882  0.39067672    -0.07400
C243        C  0.48454510  0.20786868  0.37464869     0.13500
C244        C  0.51398328  0.19318789  0.37422154    -0.20900
C245        C  0.04240207  0.21492629  0.38793169    -0.07400
C246        C  0.04181581  0.25061173  0.40444969     0.13500
C247        C  0.07159813  0.27485629  0.42090671    -0.24200
H248        H  0.51300505  0.29140505  0.41876223     0.14800
H249        H  0.51457625  0.16551531  0.36213211     0.14800
C250        C  0.45418227  0.18555142  0.35669742    -0.24200
H251        H  0.06668355  0.30108354  0.43338837     0.05000
H252        H  0.08125806  0.28611037  0.40286107     0.08200
H253        H  0.08992295  0.25660099  0.43934126     0.08200
H254        H  0.43731097  0.20476244  0.33758493     0.08200
H255        H  0.44274582  0.17595815  0.37380346     0.08200
H256        H  0.45898372  0.15866205  0.34479611     0.05000
C257        C  0.34189763  0.23069122  0.23664096    -0.20800
C258        C  0.36664479  0.23104195  0.22427272    -0.07400
C259        C  0.39546221  0.25153223  0.24199579     0.13500
C260        C  0.39852784  0.27031880  0.27123559    -0.20900
C261        C  0.37377059  0.26978635  0.28352968    -0.07400
C262        C  0.34489019  0.24982901  0.26566896     0.13500
C263        C  0.31655203  0.24938165  0.27630065    -0.24200
H264        H  0.31955259  0.21597394  0.22313765     0.14800
H265        H  0.42088397  0.28489553  0.28503028     0.14800
C266        C  0.42353355  0.25354360  0.23094107    -0.24200
H267        H  0.29506798  0.23592308  0.25777637     0.05000
H268        H  0.31011815  0.28014883  0.28042774     0.08200
H269        H  0.32222823  0.23154783  0.29872014     0.08200
H270        H  0.41704871  0.27141262  0.20842906     0.08200
H271        H  0.43089137  0.22321620  0.22682057     0.08200
H272        H  0.44472693  0.26789486  0.24921002     0.05000
C273        C  0.38435090  0.26282650  0.03412449    -0.20800
C274        C  0.35946735  0.23585454  0.02948265    -0.07400
C275        C  0.34408700  0.21799588  0.99902915     0.13500
C276        C  0.36288416  0.22488718  0.47520025    -0.20900
C277        C  0.38472249  0.25592217  0.48022066    -0.07400
C278        C  0.39637547  0.27569562  0.51024799     0.13500
C279        C  0.42075804  0.30836046  0.51670440    -0.24200
H280        H  0.39694100  0.27493072  0.05803677     0.14800
H281        H  0.35319368  0.21093937  0.45162501     0.14800
C282        C  0.31720374  0.18882653  0.99338773    -0.24200
H283        H  0.42827606  0.31942590  0.54192689     0.05000
H284        H  0.41047673  0.33368353  0.50022372     0.08200
H285        H  0.44244693  0.29722994  0.51284067     0.08200
H286        H  0.29765349  0.20266534  0.99956421     0.08200
H287        H  0.32624159  0.16212877  0.00864297     0.08200
H288        H  0.30691955  0.17912274  0.96774471     0.05000
C289        C  0.47690556  0.22042262  0.15591222    -0.20800
C290        C  0.45804367  0.19558138  0.13114777    -0.07400
C291        C  0.46925876  0.18499075  0.10619712     0.13500
C292        C  0.99840208  0.20072381  0.10601449    -0.20900
C293        C  0.01609530  0.22769827  0.12980918    -0.07400
C294        C  0.50557934  0.23662803  0.15559911     0.13500
C295        C  0.52409690  0.26411454  0.18253831    -0.24200
H296        H  0.46824168  0.22884062  0.17482360     0.14800
H297        H  0.00617903  0.19425629  0.08613855     0.14800
C298        C  0.44948025  0.15921588  0.07850248    -0.24200
H299        H  0.51280496  0.26724945  0.20088465     0.05000
H300        H  0.52517501  0.29403051  0.17267265     0.08200
H301        H  0.04855625  0.25224613  0.19485941     0.08200
H302        H  0.42594410  0.17362401  0.06530529     0.08200
H303        H  0.44560375  0.12996889  0.08785648     0.08200
H304        H  0.46151663  0.15416788  0.06097693     0.05000
C305        C  0.25860370  0.25335238  0.15686404    -0.20800
C306        C  0.26637154  0.26598092  0.13050379    -0.07400
C307        C  0.24858982  0.29715053  0.11079717     0.13500
C308        C  0.22146471  0.31232215  0.11606873    -0.20900
C309        C  0.21189255  0.29686969  0.14063181    -0.07400
C310        C  0.23180830  0.26853118  0.16233518     0.13500
C311        C  0.22473201  0.25387304  0.19110412    -0.24200
H312        H  0.27284866  0.23006370  0.17248843     0.14800
H313        H  0.20629939  0.33409329  0.09936866     0.14800
C314        C  0.25718347  0.31272657  0.08330446    -0.24200
H315        H  0.24380830  0.23347890  0.20646398     0.05000
H316        H  0.20176664  0.23747917  0.18315403     0.08200
H317        H  0.22332071  0.27939676  0.20625590     0.08200
H318        H  0.25623858  0.28843526  0.06619052     0.08200
H319        H  0.28185141  0.32499351  0.09294684     0.08200
H320        H  0.24043895  0.33657185  0.06975071     0.05000
C321        C  0.27428472  0.10223203  0.00747649    -0.20800
C322        C  0.26622789  0.11363808  0.03419460    -0.07400
C323        C  0.23323618  0.11987336  0.02869003     0.13500
C324        C  0.21004722  0.11574924  0.99714356    -0.20900
C325        C  0.22126151  0.10439801  0.46901038    -0.07400
C326        C  0.25398694  0.09739028  0.47453697     0.13500
C327        C  0.26512605  0.08801126  0.44716151    -0.24200
H328        H  0.30187494  0.09444230  0.50997223     0.14800
H329        H  0.18507440  0.12155536  0.99316212     0.14800
C330        C  0.22205006  0.13303517  0.05523147    -0.24200
H331        H  0.29115084  0.08065366  0.45614673     0.05000
H332        H  0.26129796  0.11391497  0.43076432     0.08200
H333        H  0.25173883  0.06217126  0.43339067     0.08200
H334        H  0.23286594  0.16205266  0.06489643     0.08200
H335        H  0.22888235  0.11056777  0.07490665     0.08200
H336        H  0.19554999  0.13682847  0.04637326     0.05000
C337        C  0.13342882  0.47492948  0.15213664    -0.20800
C338        C  0.10809155  0.45286352  0.15500774    -0.07400
C339        C  0.08358493  0.47323810  0.16189838     0.13500
C340        C  0.08298296  0.51484475  0.16134733    -0.20900
C341        C  0.10584631  0.53696608  0.15369426    -0.07400
C342        C  0.13276414  0.51655490  0.15141264     0.13500
C343        C  0.16045926  0.53774802  0.14701706    -0.24200
H344        H  0.15295579  0.45943891  0.14823951     0.14800
H345        H  0.06298997  0.52999187  0.16457437     0.14800
C346        C  0.05661876  0.45184407  0.16759912    -0.24200
H347        H  0.18038464  0.51707124  0.14869105     0.05000
H348        H  0.17018133  0.56032650  0.16624682     0.08200
H349        H  0.15260639  0.55190627  0.12276992     0.08200
H350        H  0.06658923  0.43183149  0.18886239     0.08200
H351        H  0.04250746  0.43455969  0.14581678     0.08200
H352        H  0.03977878  0.47267441  0.17265627     0.05000
C353        C  0.33947604  0.51792867  0.35556483    -0.20800
C354        C  0.36276128  0.53919791  0.34804688    -0.07400
C355        C  0.38330884  0.51795086  0.33580018     0.13500
C356        C  0.38365534  0.47630504  0.33688633    -0.20900
C357        C  0.36420340  0.45541670  0.34995934    -0.07400
C358        C  0.33972139  0.47638336  0.35645425     0.13500
C359        C  0.31418002  0.45553058  0.36508952    -0.24200
H360        H  0.32237867  0.53387088  0.36313979     0.14800
H361        H  0.40144344  0.46029549  0.33040471     0.14800
C362        C  0.40662506  0.53839080  0.32372099    -0.24200
H363        H  0.29488001  0.47633104  0.36507423     0.05000
H364        H  0.32442681  0.44241327  0.38968437     0.08200
H365        H  0.30292399  0.43208330  0.34703964     0.08200
H366        H  0.42482224  0.55465743  0.34376871     0.08200
H367        H  0.39342926  0.55915358  0.30379719     0.08200
H368        H  0.41972586  0.51698366  0.31404478     0.05000
C369        C  0.44396448  0.60730544  0.99915816    -0.20800
C370        C  0.46295312  0.60954556  0.46893567    -0.07400
C371        C  0.49552120  0.61062879  0.47168226     0.13500
C372        C  0.00840492  0.62105753  0.00871449    -0.17700
C373        C  0.00015467  0.61298682  0.03580433    -0.07400
C374        C  0.46714308  0.60559818  0.03093044     0.13500
C375        C  0.45656371  0.59556625  0.05853310    -0.24200
H376        H  0.41908091  0.60199694  0.99570465     0.14800
H377        H  0.04455421  0.61178422  0.50369320     0.14800
C378        C  0.50501174  0.61536595  0.44263319    -0.24200
H379        H  0.43062113  0.58820699  0.04984589     0.05000
H380        H  0.46046775  0.62115283  0.07512948     0.08200
H381        H  0.47033257  0.56953217  0.07201105     0.08200
H382        H  0.49623344  0.64428249  0.43064448     0.08200
H383        H  0.49493068  0.59078190  0.42538056     0.08200
H384        H  0.03130841  0.61559224  0.44908596     0.05000
C385        C  0.13836170  0.01738065  0.33707021    -0.20800
C386        C  0.11561086  0.03877403  0.34567011    -0.07400
C387        C  0.08837051  0.01819557  0.34650168     0.13500
C388        C  0.08818670  0.97656676  0.34538048    -0.20900
C389        C  0.11412384  0.95495930  0.34290462    -0.07400
C390        C  0.13802348  0.97583184  0.33564151     0.13500
C391        C  0.16469637  0.95496528  0.32880518    -0.24200
H392        H  0.15824809  0.03288186  0.33413569     0.14800
H393        H  0.06877891  0.96072049  0.34901581     0.14800
C394        C  0.05984498  0.03923868  0.34954369    -0.24200
H395        H  0.18056194  0.97616137  0.32276161     0.05000
H396        H  0.15433127  0.93488796  0.30779957     0.08200
H397        H  0.17990362  0.93782751  0.35038517     0.08200
H398        H  0.05095895  0.06239537  0.33048552     0.08200
H399        H  0.06637467  0.05271196  0.37384700     0.08200
H400        H  0.03972467  0.01855208  0.34643691     0.05000
C401        C  0.13575559  0.76596850  0.26625455    -0.20800
C402        C  0.11468931  0.76034584  0.28284608    -0.07400
C403        C  0.08831337  0.73400904  0.26907032     0.13500
C404        C  0.08423489  0.71439491  0.23994937    -0.20900
C405        C  0.10456642  0.72113589  0.22297629    -0.07400
C406        C  0.13097911  0.74701101  0.23655877     0.13500
C407        C  0.15490423  0.75379739  0.22047182    -0.24200
H408        H  0.15638571  0.78499780  0.27673704     0.14800
H409        H  0.06395113  0.69481085  0.22951535     0.14800
C410        C  0.06336119  0.72686412  0.28389880    -0.24200
H411        H  0.17544452  0.77202140  0.23575196     0.05000
H412        H  0.14343624  0.76973592  0.19717408     0.08200
H413        H  0.16460090  0.72494851  0.21612610     0.08200
H414        H  0.05325775  0.75553962  0.28801653     0.08200
H415        H  0.07403142  0.71022185  0.30698160     0.08200
H416        H  0.04301140  0.70890196  0.26790357     0.05000
C417        C  0.10123349  0.70203593  0.00526390    -0.20800
C418        C  0.08036032  0.72238318  0.01714748    -0.07400
C419        C  0.06455321  0.75685826  0.00133039     0.13500
C420        C  0.08316427  0.76452315  0.47716835    -0.20900
C421        C  0.11424080  0.76584972  0.47637470    -0.07400
C422        C  0.14102512  0.75666284  0.50422208     0.13500
C423        C  0.17469111  0.76066533  0.50481546    -0.24200
H424        H  0.11344658  0.67546902  0.01753149     0.14800
H425        H  0.06271574  0.77233641  0.45566722     0.14800
C426        C  0.04018889  0.77824778  0.01154333    -0.24200
H427        H  0.14129439  0.66695809  0.98393787     0.05000
H428        H  0.17845421  0.79080392  0.49698187     0.08200
H429        H  0.17909968  0.73852818  0.48845926     0.08200
H430        H  0.05192989  0.79113625  0.03599069     0.08200
H431        H  0.02118785  0.75732438  0.01168240     0.08200
H432        H  0.02637280  0.75901676  0.48116997     0.05000
C433        C  0.21991625  0.70472831  0.37221257    -0.20800
C434        C  0.22237537  0.73520219  0.39463051    -0.07400
C435        C  0.25320440  0.74831105  0.41468450     0.13500
C436        C  0.28029190  0.73312252  0.40995877    -0.20900
C437        C  0.27781146  0.70523238  0.38572569    -0.07400
C438        C  0.24736365  0.68953700  0.36752893     0.13500
C439        C  0.24361339  0.65871482  0.34202169    -0.24200
H440        H  0.19628651  0.69480523  0.35667119     0.14800
H441        H  0.30381175  0.74389457  0.42499148     0.14800
C442        C  0.25775745  0.77856175  0.44100742    -0.24200
H443        H  0.21805504  0.65051718  0.32932665     0.05000
H444        H  0.25715864  0.63154595  0.35336655     0.08200
H445        H  0.25294160  0.67024844  0.32377128     0.08200
H446        H  0.24583422  0.76827528  0.45751876     0.08200
H447        H  0.24762009  0.80767904  0.43052223     0.08200
H448        H  0.28357105  0.78318902  0.45571535     0.05000
C449        C  0.00486753  0.76494011  0.34677913    -0.20800
C450        C  0.02073515  0.79497495  0.36822251    -0.07400
C451        C  0.50789883  0.80917124  0.39147831     0.13500
C452        C  0.48106337  0.78991483  0.39405020    -0.20900
C453        C  0.46715699  0.75744111  0.37438614    -0.07400
C454        C  0.47827674  0.74654599  0.34949491     0.13500
C455        C  0.46141202  0.71572727  0.32459260    -0.24200
H456        H  0.01462319  0.75466832  0.32913764     0.14800
H457        H  0.47179010  0.79911651  0.41231670     0.14800
C458        C  0.52269257  0.84318548  0.41379234    -0.24200
H459        H  0.97183941  0.71229554  0.30552131     0.05000
H460        H  0.43604052  0.72482115  0.31169838     0.08200
H461        H  0.46239618  0.68644534  0.33624559     0.08200
H462        H  0.02211938  0.87001666  0.39869789     0.08200
H463        H  0.04764792  0.83582381  0.42858346     0.08200
H464        H  0.50949805  0.84981463  0.43005073     0.05000
C465        C  0.33235618  0.98111807  0.16447566    -0.20800
C466        C  0.35483415  0.95885267  0.15638003    -0.07400
C467        C  0.38239307  0.97805619  0.15505661     0.13500
C468        C  0.38390919  0.01952036  0.15645909    -0.20900
C469        C  0.35851978  0.04227160  0.15880980    -0.07400
C470        C  0.33360256  0.02267363  0.16544010     0.13500
C471        C  0.30659065  0.04488936  0.17061827    -0.24200
H472        H  0.31178548  0.96634160  0.16660432     0.14800
H473        H  0.40377426  0.03433629  0.15287204     0.14800
C474        C  0.40981807  0.95535431  0.15107353    -0.24200
H475        H  0.28959041  0.02457610  0.17573830     0.05000
H476        H  0.29267869  0.06216172  0.14858123     0.08200
H477        H  0.31648981  0.06500238  0.19166294     0.08200
H478        H  0.40252055  0.94251923  0.12648759     0.08200
H479        H  0.41791237  0.93141013  0.16951605     0.08200
H480        H  0.43070043  0.97480382  0.15432829     0.05000
C481        C  0.35672564  0.72765075  0.22401010    -0.20800
C482        C  0.35119206  0.76896950  0.22062677    -0.07400
C483        C  0.35143433  0.79062932  0.24794886     0.13500
C484        C  0.35717817  0.77062667  0.27738416    -0.20900
C485        C  0.36231042  0.72935412  0.28058227    -0.07400
C486        C  0.36212438  0.70763571  0.25339486     0.13500
C487        C  0.36629738  0.66326885  0.25469425    -0.24200
H488        H  0.35599114  0.71045677  0.20318110     0.14800
H489        H  0.35794472  0.78763485  0.29832259     0.14800
C490        C  0.34620154  0.83482093  0.24670016    -0.24200
H491        H  0.36321721  0.65084392  0.23060591     0.05000
H492        H  0.34811664  0.64942363  0.26285983     0.08200
H493        H  0.39076189  0.65508713  0.27155824     0.08200
H494        H  0.32135386  0.84213948  0.23029144     0.08200
H495        H  0.36371764  0.84959549  0.23811482     0.08200
H496        H  0.34940401  0.84706169  0.27087707     0.05000
C497        C  0.33401736  0.79052343  0.99500381    -0.20800
C498        C  0.34189289  0.76638709  0.02267755    -0.07400
C499        C  0.36005140  0.73147239  0.02506316     0.13500
C500        C  0.37632906  0.71218139  0.50255706    -0.20900
C501        C  0.37440957  0.73824012  0.47716722    -0.07400
C502        C  0.36317162  0.77727234  0.47735564     0.13500
C503        C  0.36027566  0.80649967  0.45070299    -0.24200
H504        H  0.32092688  0.81795930  0.99381058     0.14800
H505        H  0.38481699  0.68211240  0.50220738     0.14800
C506        C  0.37090751  0.70582702  0.05503371    -0.24200
H507        H  0.35047266  0.83544665  0.45472018     0.05000
H508        H  0.34390488  0.79489331  0.42707287     0.08200
H509        H  0.38431586  0.81186839  0.44967417     0.08200
H510        H  0.34971356  0.69404821  0.05931984     0.08200
H511        H  0.38588963  0.72339937  0.07625927     0.08200
H512        H  0.38553479  0.68016601  0.05273966     0.05000
C513        C  0.45724629  0.77585507  0.15212755    -0.20800
C514        C  0.43848630  0.79847927  0.12552694    -0.07400
C515        C  0.44925570  0.80451847  0.09957914     0.13500
C516        C  0.97691494  0.78492021  0.09922865    -0.20900
C517        C  0.99435216  0.75951786  0.12475157    -0.07400
C518        C  0.48530776  0.75679951  0.15269645     0.13500
C519        C  0.50470786  0.73401872  0.18284818    -0.24200
H520        H  0.44904610  0.77162848  0.17203897     0.14800
H521        H  0.98420065  0.78786225  0.07861130     0.14800
C522        C  0.43000143  0.82896533  0.07044283    -0.24200
H523        H  0.49556796  0.73864367  0.20269493     0.05000
H524        H  0.02982963  0.74470168  0.19086375     0.08200
H525        H  0.50366916  0.70176706  0.17800264     0.08200
H526        H  0.42736140  0.85967587  0.07800872     0.08200
H527        H  0.40593739  0.81571139  0.05842391     0.08200
H528        H  0.44176804  0.83040648  0.05239032     0.05000
C529        C  0.21140840  0.69142585  0.13029862    -0.20800
C530        C  0.18272496  0.71352529  0.11753572    -0.07400
C531        C  0.18284792  0.74953203  0.10112133     0.13500
C532        C  0.21137033  0.76304587  0.09886662    -0.20900
C533        C  0.24048814  0.74262330  0.11325598    -0.07400
C534        C  0.24052146  0.70597720  0.12893967     0.13500
C535        C  0.27123573  0.68324490  0.14556260    -0.24200
H536        H  0.21125547  0.66351784  0.14231441     0.14800
H537        H  0.21116223  0.79091381  0.08661059     0.14800
C538        C  0.15282867  0.77396599  0.08514485    -0.24200
H539        H  0.26706511  0.65583862  0.15727465     0.05000
H540        H  0.28849858  0.70186401  0.16458815     0.08200
H541        H  0.28194790  0.67458195  0.12761591     0.08200
H542        H  0.14324564  0.78476779  0.10338909     0.08200
H543        H  0.13465716  0.75592589  0.06666941     0.08200
H544        H  0.15736644  0.80047479  0.07271484     0.05000
C545        C  0.23783117  0.89025591  0.47175132    -0.20800
C546        C  0.20633613  0.88504705  0.47065118    -0.07400
C547        C  0.19126261  0.86516956  0.00276997     0.13500
C548        C  0.21747749  0.86965836  0.03223053    -0.20900
C549        C  0.24650347  0.88659117  0.03363184    -0.07400
C550        C  0.24799825  0.90270061  0.00456503     0.13500
C551        C  0.27677243  0.92557524  0.00438766    -0.24200
H552        H  0.24190165  0.89204401  0.44920596     0.14800
H553        H  0.21587342  0.85752537  0.05418690     0.14800
C554        C  0.16185254  0.84452481  0.00391721    -0.24200
H555        H  0.29567615  0.90408741  0.47462162     0.05000
H556        H  0.29781179  0.90567335  0.00934170     0.08200
H557        H  0.28248336  0.94940692  0.02280745     0.08200
H558        H  0.15643834  0.85506355  0.49298068     0.08200
H559        H  0.15394559  0.90877665  0.48968850     0.08200
H560        H  0.16486876  0.83538555  0.02886944     0.05000
Fe561      Fe  0.30519728  0.84325110  0.63316240     1.65800
Fe562      Fe  0.35936181  0.85547706  0.59609376     1.73200
Fe563      Fe  0.34756576  0.76423212  0.62163295     1.54400
O564        O  0.35743965  0.76603155  0.67076758    -0.82200
O565        O  0.35950147  0.81373056  0.56342027    -0.80500
O566        O  0.32653577  0.81495573  0.67792664    -0.84700
O567        O  0.27403693  0.79650484  0.61908391    -0.79500
O568        O  0.39505734  0.77338171  0.62834314    -0.81300
O569        O  0.31539983  0.87464655  0.56349252    -0.84100
C570        C  0.27728640  0.75951555  0.61714314     0.96700
C571        C  0.34459049  0.78444098  0.68806783     1.04100
O572        O  0.33758692  0.82109647  0.61756911    -1.13000
O573        O  0.36319092  0.90330471  0.62538323    -0.75500
O574        O  0.33025234  0.89503705  0.65162856    -0.79000
O575        O  0.30238016  0.74376992  0.61575125    -0.79700
C576        C  0.35079880  0.91538182  0.64501083     0.95600
O577        O  0.28018546  0.86956664  0.58799393    -0.77600
O578        O  0.40548343  0.83700949  0.62497317    -0.82800
C579        C  0.34955854  0.77890111  0.55587884     0.98200
C580        C  0.41453407  0.80094901  0.62918375     1.04100
O581        O  0.33772887  0.75823436  0.57265218    -0.78500
C582        C  0.28689022  0.87723102  0.56295761     1.02400
Fe583      Fe  0.15387806  0.83738820  0.87017890     1.65800
Fe584      Fe  0.09716534  0.85193806  0.90283954     1.73200
Fe585      Fe  0.10561201  0.76244790  0.87326585     1.54400
O586        O  0.09504394  0.77006083  0.82488978    -0.82200
O587        O  0.09101825  0.80666376  0.93068243    -0.80500
O588        O  0.13658717  0.80694673  0.82523295    -0.84700
O589        O  0.18368592  0.79103736  0.89134159    -0.79500
O590        O  0.05824605  0.77560177  0.86710269    -0.81300
O591        O  0.13994716  0.86371163  0.93933902    -0.84100
C592        C  0.17895610  0.75453694  0.88584373     0.96700
C593        C  0.11328360  0.78320641  0.81111776     1.04100
O594        O  0.11873867  0.81755607  0.88164521    -1.13000
O595        O  0.10062792  0.90246803  0.87825959    -0.75500
O596        O  0.12848041  0.88714483  0.84760724    -0.79000
O597        O  0.15096939  0.73977259  0.87729138    -0.79700
C598        C  0.11241526  0.91159961  0.85724920     0.95600
O599        O  0.17555675  0.86666607  0.91526188    -0.77600
O600        O  0.05211942  0.84077048  0.86902882    -0.82800
C601        C  0.10082149  0.77130390  0.93755596     0.98200
C602        C  0.04064721  0.80602299  0.86501962     1.04100
O603        O  0.11485384  0.75257981  0.92162920    -0.78500
C604        C  0.16828559  0.86942413  0.94056509     1.02400
Fe605      Fe  0.40440570  0.65771939  0.86897124     1.65800
Fe606      Fe  0.35246048  0.64532137  0.90748402     1.73200
Fe607      Fe  0.35773118  0.73405059  0.87484728     1.54400
O608        O  0.40034904  0.75560792  0.87134931    -0.82200
O609        O  0.30572899  0.65870833  0.87719139    -0.80500
O610        O  0.43415252  0.70513126  0.88577741    -0.84700
O611        O  0.38216089  0.68588716  0.82377367    -0.79500
O612        O  0.37331312  0.74517874  0.92373878    -0.81300
O613        O  0.35189463  0.59448009  0.88149265    -0.84100
C614        C  0.35867637  0.71005770  0.81087540     0.96700
C615        C  0.42781913  0.74054272  0.87649111     1.04100
O616        O  0.37138986  0.67862076  0.88336035    -1.13000
O617        O  0.39703339  0.63124675  0.94111321    -0.75500
O618        O  0.43010107  0.63066361  0.91405964    -0.79000
O619        O  0.34180947  0.72391937  0.82613945    -0.79700
C620        C  0.42488069  0.62644902  0.94033390     0.95600
O621        O  0.37955977  0.60660126  0.85014128    -0.77600
O622        O  0.35157169  0.69141244  0.93688597    -0.82800
C623        C  0.29491006  0.69379787  0.87568019     0.98200
C624        C  0.36276929  0.72621315  0.94255795     1.04100
O625        O  0.31219716  0.72364541  0.87595686    -0.78500
C626        C  0.36304084  0.58364382  0.86031489     1.02400
Fe627      Fe  0.05908286  0.64870118  0.63300091     1.65800
Fe628      Fe  0.11140146  0.63988150  0.59465270     1.73200
Fe629      Fe  0.10233469  0.72753788  0.62655906     1.54400
O630        O  0.05729236  0.74659781  0.62669358    -0.82200
O631        O  0.15713874  0.65282179  0.62572215    -0.80500
O632        O  0.02709373  0.69345252  0.61195146    -0.84700
O633        O  0.07703594  0.68028215  0.67728108    -0.79500
O634        O  0.08847772  0.73840665  0.57757760    -0.81300
O635        O  0.11162386  0.58826435  0.61993912    -0.84100
C636        C  0.09963210  0.70527164  0.69028760     0.96700
C637        C  0.03042327  0.72937945  0.62016961     1.04100
O638        O  0.09143954  0.67162223  0.61881432    -1.13000
O639        O  0.06738980  0.62716815  0.56058123    -0.75500
O640        O  0.03667382  0.61774963  0.58939012    -0.79000
O641        O  0.11679175  0.71897474  0.67545834    -0.79700
C642        C  0.04071258  0.61783233  0.56236875     0.95600
O643        O  0.08738521  0.59996193  0.65465893    -0.77600
O644        O  0.11375022  0.68676521  0.56612118    -0.82800
C645        C  0.16737022  0.68815818  0.62930347     0.98200
C646        C  0.10154430  0.72118891  0.56007341     1.04100
O647        O  0.14928825  0.71768974  0.62871314    -0.78500
C648        C  0.10328282  0.57739780  0.64306434     1.02400
Fe649      Fe  0.31409053  0.15680111  0.63367305     1.65800
Fe650      Fe  0.36669855  0.13942926  0.59635201     1.73200
Fe651      Fe  0.36038007  0.23101549  0.62429618     1.54400
O652        O  0.31659762  0.25411663  0.62415566    -0.82200
O653        O  0.41318895  0.15259356  0.62593109    -0.80500
O654        O  0.28390663  0.20289220  0.61257845    -0.84700
O655        O  0.33401505  0.18937751  0.67728407    -0.79500
O656        O  0.34738544  0.23868017  0.57495010    -0.81300
O657        O  0.36623844  0.09064010  0.62433962    -0.84100
C658        C  0.35705431  0.21417014  0.68923349     0.96700
C659        C  0.28943388  0.23890884  0.61973225     1.04100
O660        O  0.34742052  0.17540355  0.61871973    -1.13000
O661        O  0.32258585  0.12555062  0.56311975    -0.75500
O662        O  0.28984806  0.12555998  0.59046642    -0.79000
O663        O  0.37412343  0.22570974  0.67351882    -0.79700
C664        C  0.29504915  0.12040001  0.56429178     0.95600
O665        O  0.33985693  0.10705378  0.65624592    -0.77600
O666        O  0.36886331  0.18256742  0.56512641    -0.82800
C667        C  0.42425153  0.18751715  0.62844545     0.98200
C668        C  0.35837244  0.21746607  0.55763106     1.04100
O669        O  0.40682639  0.21792198  0.62696850    -0.78500
C670        C  0.35549816  0.08221085  0.64634389     1.02400
Fe671      Fe  0.16832265  0.14763579  0.86955379     1.65800
Fe672      Fe  0.12173859  0.13343767  0.91279470     1.73200
Fe673      Fe  0.13428504  0.22645513  0.88999602     1.54400
O674        O  0.18264298  0.24030427  0.90329065    -0.82200
O675        O  0.07794538  0.16339090  0.89862556    -0.80500
O676        O  0.19507144  0.19734063  0.87244000    -0.84700
O677        O  0.13720131  0.16883496  0.82513593    -0.79500
O678        O  0.13921068  0.22826683  0.93824716    -0.81300
O679        O  0.10351999  0.09718730  0.87304146    -0.84100
C680        C  0.12818405  0.20502425  0.81904844     0.96700
C681        C  0.20000770  0.22951284  0.88777146     1.04100
O682        O  0.14076463  0.16957583  0.89053186    -1.13000
O683        O  0.16468835  0.10121894  0.93246664    -0.75500
O684        O  0.19987126  0.13043856  0.91512574    -0.79000
O685        O  0.12811606  0.22907867  0.84123621    -0.79700
C686        C  0.19324779  0.11245052  0.93715066     0.95600
O687        O  0.14699911  0.09250718  0.86135311    -0.77600
O688        O  0.13697758  0.16569544  0.95395753    -0.82800
C689        C  0.06832581  0.19746949  0.88660146     0.98200
C690        C  0.13921193  0.20248965  0.95920089     1.04100
O691        O  0.08540131  0.22057411  0.87711122    -0.78500
C692        C  0.12064391  0.07836314  0.86076515     1.02400
Fe693      Fe  0.41573298  0.34575423  0.86854507     1.65800
Fe694      Fe  0.36797156  0.35272252  0.91260443     1.73200
Fe695      Fe  0.37745804  0.26370426  0.88119415     1.54400
O696        O  0.36414230  0.26803531  0.83170026    -0.82200
O697        O  0.36952984  0.30812942  0.94354231    -0.80500
O698        O  0.39293119  0.31818255  0.82345811    -0.84700
O699        O  0.44852626  0.30095302  0.88185666    -0.79500
O700        O  0.33012924  0.27261594  0.87741549    -0.81300
O701        O  0.41282569  0.36856132  0.94388327    -0.84100
C702        C  0.44823055  0.26382529  0.88504032     0.96700
C703        C  0.37456003  0.28812704  0.81341035     1.04100
O704        O  0.38676151  0.32074993  0.88688411    -1.13000
O705        O  0.36289746  0.40364223  0.88616962    -0.75500
O706        O  0.38740130  0.39582792  0.85158889    -0.79000
O707        O  0.42342270  0.24563103  0.88484758    -0.79700
C708        C  0.37029320  0.41619250  0.86310640     0.95600
O709        O  0.44284720  0.37181949  0.91350165    -0.77600
O710        O  0.32182229  0.33664514  0.88475385    -0.82800
C711        C  0.38048890  0.27339452  0.94925249     0.98200
C712        C  0.31205905  0.30118619  0.87898432     1.04100
O713        O  0.39019078  0.25387088  0.93021916    -0.78500
C714        C  0.43953837  0.37438430  0.94091316     1.02400
Fe715      Fe  0.06554706  0.33459509  0.63523873     1.65800
Fe716      Fe  0.12160581  0.34555235  0.60109698     1.73200
Fe717      Fe  0.11385455  0.25801709  0.63359932     1.54400
O718        O  0.12558725  0.26908042  0.68161354    -0.82200
O719        O  0.12726189  0.29815593  0.57429448    -0.80500
O720        O  0.08393589  0.30623480  0.68113780    -0.84700
O721        O  0.03570439  0.28752367  0.61667458    -0.79500
O722        O  0.16097732  0.26944973  0.63788305    -0.81300
O723        O  0.07851122  0.35739792  0.56491913    -0.84100
C724        C  0.04126625  0.25157120  0.62471529     0.96700
C725        C  0.10694638  0.28180836  0.69520883     1.04100
O726        O  0.10033093  0.31303852  0.62358453    -1.13000
O727        O  0.11852552  0.39774173  0.62445090    -0.75500
O728        O  0.09030257  0.38549674  0.65531140    -0.79000
O729        O  0.06915395  0.23650518  0.63206698    -0.79700
C730        C  0.10643584  0.40880268  0.64487480     0.95600
O731        O  0.04321822  0.36186161  0.58940498    -0.77600
O732        O  0.16693199  0.33432464  0.63477837    -0.82800
C733        C  0.11730117  0.26273300  0.56881857     0.98200
C734        C  0.17850707  0.29943764  0.63924576     1.04100
O735        O  0.10334837  0.24528850  0.58541826    -0.78500
C736        C  0.05030691  0.36393050  0.56398575     1.02400
C737        C  0.49746449  0.36232064  0.97271783    -0.20800
C738        C  0.46849849  0.37973582  0.97136093    -0.07400
C739        C  0.47057098  0.39856690  0.50073743     0.13500
C740        C  0.49678269  0.39307423  0.53020426    -0.20900
C741        C  0.02471250  0.37298303  0.53162185    -0.07400
C742        C  0.02692231  0.35983551  0.50199848     0.13500
C743        C  0.05569079  0.33739476  0.50073054    -0.24200
H744        H  0.49888879  0.34990164  0.95079846     0.14800
H745        H  0.49510635  0.40403975  0.55244511     0.14800
C746        C  0.44168724  0.42148234  0.50105546    -0.24200
H747        H  0.04965889  0.32639809  0.97614738     0.05000
H748        H  0.06009973  0.31055732  0.51622135     0.08200
H749        H  0.07718976  0.35663900  0.50881219     0.08200
H750        H  0.41686995  0.39868563  0.99495152     0.08200
H751        H  0.43224895  0.44272578  0.98244455     0.08200
H752        H  0.44579521  0.43407370  0.52532838     0.05000
C753        C  0.12444908  0.22493435  0.73306951    -0.20800
C754        C  0.11085434  0.26327596  0.72705599    -0.07400
C755        C  0.09994473  0.28034003  0.75022360     0.13500
C756        C  0.10420040  0.25936225  0.77897213    -0.20900
C757        C  0.11929421  0.22176680  0.78563781    -0.07400
C758        C  0.12889393  0.20408005  0.76173391     0.13500
C759        C  0.14470481  0.16379607  0.76615378    -0.24200
H760        H  0.13180394  0.21079003  0.71501127     0.14800
H761        H  0.09634040  0.27311517  0.79683030     0.14800
C762        C  0.08495005  0.32105390  0.74563947    -0.24200
H763        H  0.15047152  0.15495054  0.74482324     0.05000
H764        H  0.12832678  0.14107275  0.76944997     0.08200
H765        H  0.16762787  0.16401057  0.78740642     0.08200
H766        H  0.06201186  0.32151114  0.72452337     0.08200
H767        H  0.10166685  0.34297464  0.74191253     0.08200
H768        H  0.07951827  0.33044010  0.76704069     0.05000
C769        C  0.11082053  0.20147150  0.99658581    -0.20800
C770        C  0.13709988  0.21552087  0.98964930    -0.07400
C771        C  0.15791721  0.24351694  0.00996387     0.13500
C772        C  0.15507222  0.24768225  0.54168573    -0.20900
C773        C  0.12460786  0.24158681  0.54339901    -0.07400
C774        C  0.10185687  0.21824518  0.51983032     0.13500
C775        C  0.06898074  0.21071607  0.52055747    -0.24200
H776        H  0.09489989  0.17986985  0.98067152     0.14800
H777        H  0.17291602  0.26476778  0.56031741     0.14800
C778        C  0.18794904  0.25747653  0.00549177    -0.24200
H779        H  0.06077379  0.17985656  0.00910633     0.05000
H780        H  0.05648708  0.23922532  0.52033052     0.08200
H781        H  0.07116124  0.19375961  0.54269478     0.08200
H782        H  0.19222343  0.24252332  0.98523762     0.08200
H783        H  0.20904369  0.25115172  0.02786412     0.08200
H784        H  0.19995369  0.27225098  0.51512200     0.05000
C785        C  0.23021483  0.25475875  0.85528359    -0.20800
C786        C  0.22599036  0.25472012  0.88520023    -0.07400
C787        C  0.24808372  0.27529404  0.91158729     0.13500
C788        C  0.27462123  0.29367009  0.90772060    -0.20900
C789        C  0.27986315  0.29111645  0.87841941    -0.07400
C790        C  0.25706477  0.27215197  0.85174401     0.13500
C791        C  0.26150216  0.26932457  0.81984370    -0.24200
H792        H  0.21299500  0.23956832  0.83478292     0.14800
H793        H  0.29261863  0.30765200  0.92837328     0.14800
C794        C  0.24509081  0.27558925  0.94426965    -0.24200
H795        H  0.24097956  0.25434250  0.80117825     0.05000
H796        H  0.28352329  0.25199719  0.82304508     0.08200
H797        H  0.26371407  0.29946184  0.81088649     0.08200
H798        H  0.24527580  0.24474434  0.95305432     0.08200
H799        H  0.22235938  0.29048912  0.94251147     0.08200
H800        H  0.26523590  0.29167667  0.96249064     0.05000
C801        C  0.50709817  0.26387827  0.90180708    -0.20800
C802        C  0.47849426  0.24248257  0.88832992    -0.07400
C803        C  0.47960211  0.20471151  0.87481929     0.13500
C804        C  0.50918824  0.18999103  0.87470781    -0.20900
C805        C  0.03731782  0.21302767  0.88670161    -0.07400
C806        C  0.03614073  0.25031327  0.90081778     0.13500
C807        C  0.06554015  0.27574507  0.91570015    -0.24200
H808        H  0.50660584  0.29251265  0.91262239     0.14800
H809        H  0.51022199  0.16116864  0.86443787     0.14800
C810        C  0.44968173  0.18064406  0.85923805    -0.24200
H811        H  0.06020004  0.30313450  0.92662069     0.05000
H812        H  0.07501411  0.28516824  0.89701098     0.08200
H813        H  0.08415095  0.25902171  0.93521026     0.08200
H814        H  0.43201150  0.19776958  0.83910248     0.08200
H815        H  0.43903088  0.17307594  0.87745230     0.08200
H816        H  0.45483726  0.15250968  0.84912128     0.05000
C817        C  0.33712261  0.23278996  0.73308209    -0.20800
C818        C  0.36245658  0.23294795  0.72147267    -0.07400
C819        C  0.39071505  0.25441522  0.73936611     0.13500
C820        C  0.39285804  0.27384064  0.76811261    -0.20900
C821        C  0.36784483  0.27281380  0.77999501    -0.07400
C822        C  0.33934447  0.25235636  0.76180963     0.13500
C823        C  0.31083439  0.25147122  0.77208567    -0.24200
H824        H  0.31512192  0.21748916  0.71944270     0.14800
H825        H  0.41490470  0.28890494  0.78211743     0.14800
C826        C  0.41932335  0.25657928  0.72917581    -0.24200
H827        H  0.28962486  0.23762454  0.75348005     0.05000
H828        H  0.30401404  0.28210973  0.77608985     0.08200
H829        H  0.31668705  0.23370926  0.79453377     0.08200
H830        H  0.41305556  0.27360701  0.70627059     0.08200
H831        H  0.42745316  0.22626010  0.72611299     0.08200
H832        H  0.43994131  0.27188153  0.74745429     0.05000
C833        C  0.38521094  0.26445411  0.53451432    -0.20800
C834        C  0.36291316  0.23387394  0.52930614    -0.07400
C835        C  0.35185701  0.21345538  0.49951202     0.13500
C836        C  0.35376740  0.22813737  0.97351399    -0.20900
C837        C  0.37851838  0.25533409  0.97810261    -0.07400
C838        C  0.39407351  0.27289242  0.00864966     0.13500
C839        C  0.42097011  0.30204671  0.01432634    -0.24200
H840        H  0.39475381  0.27858228  0.55802079     0.14800
H841        H  0.34103824  0.21623114  0.94955975     0.14800
C842        C  0.32789422  0.18027522  0.49306801    -0.24200
H843        H  0.43115100  0.31187427  0.03993958     0.05000
H844        H  0.41201717  0.32864318  0.99898135     0.08200
H845        H  0.44055737  0.28815424  0.00825093     0.08200
H846        H  0.30610724  0.19082525  0.49702823     0.08200
H847        H  0.33853317  0.15486855  0.50939670     0.08200
H848        H  0.32039807  0.16937103  0.46779806     0.05000
C849        C  0.47582254  0.22099794  0.65502659    -0.20800
C850        C  0.45776402  0.19475473  0.63111722    -0.07400
C851        C  0.46926789  0.18347455  0.60651695     0.13500
C852        C  0.99785144  0.20023313  0.60574233    -0.20900
C853        C  0.01476024  0.22846441  0.62873639    -0.07400
C854        C  0.50393741  0.23798702  0.65416794     0.13500
C855        C  0.52167772  0.26656312  0.68040144    -0.24200
H856        H  0.46691857  0.22981088  0.67368172     0.14800
H857        H  0.00596556  0.19310916  0.58620806     0.14800
C858        C  0.45036197  0.15595690  0.57975392    -0.24200
H859        H  0.50997011  0.27047646  0.69833927     0.05000
H860        H  0.52272023  0.29604258  0.66981085     0.08200
H861        H  0.04604051  0.25476960  0.69341844     0.08200
H862        H  0.42650391  0.16914749  0.56591588     0.08200
H863        H  0.44722927  0.12706078  0.59012711     0.08200
H864        H  0.46268114  0.15042544  0.56253703     0.05000
C865        C  0.25685879  0.24620326  0.65343612    -0.20800
C866        C  0.26477165  0.26114974  0.62781331    -0.07400
C867        C  0.24772909  0.29409650  0.61015838     0.13500
C868        C  0.22138465  0.30921878  0.61688409    -0.20900
C869        C  0.21176516  0.29189410  0.64078768    -0.07400
C870        C  0.23084183  0.26125250  0.66033999     0.13500
C871        C  0.22379462  0.24404048  0.68837840    -0.24200
H872        H  0.27048992  0.22141800  0.66744278     0.14800
H873        H  0.20676261  0.33258556  0.60169795     0.14800
C874        C  0.25610972  0.31161882  0.58315032    -0.24200
H875        H  0.24236778  0.22209385  0.70215128     0.05000
H876        H  0.20041138  0.22856474  0.67976636     0.08200
H877        H  0.22338801  0.26806645  0.70525481     0.08200
H878        H  0.25406624  0.28868753  0.56463729     0.08200
H879        H  0.28112029  0.32278174  0.59292239     0.08200
H880        H  0.23989778  0.33666385  0.57118155     0.05000
C881        C  0.27685302  0.09936124  0.50630656    -0.20800
C882        C  0.26843293  0.10998542  0.53296566    -0.07400
C883        C  0.23536714  0.11517711  0.52746063     0.13500
C884        C  0.21240741  0.11134967  0.49585310    -0.20900
C885        C  0.21859072  0.10770085  0.97024440    -0.07400
C886        C  0.25125904  0.10024868  0.97573886     0.13500
C887        C  0.26218142  0.09032445  0.94832629    -0.24200
H888        H  0.29919410  0.09658945  0.01105734     0.14800
H889        H  0.18735873  0.11672256  0.49180492     0.14800
C890        C  0.22383614  0.12701557  0.55407347    -0.24200
H891        H  0.28819342  0.08291685  0.95721643     0.05000
H892        H  0.25825932  0.11601491  0.93169834     0.08200
H893        H  0.24869787  0.06438133  0.93483474     0.08200
H894        H  0.23411767  0.15610016  0.56415821     0.08200
H895        H  0.23098505  0.10414886  0.57344558     0.08200
H896        H  0.19727915  0.13009188  0.54516629     0.05000
C897        C  0.13625814  0.47245196  0.65369952    -0.20800
C898        C  0.10965883  0.45134918  0.65468857    -0.07400
C899        C  0.08448111  0.47278729  0.65966505     0.13500
C900        C  0.08489236  0.51448924  0.65946028    -0.20900
C901        C  0.10950812  0.53541198  0.65407350    -0.07400
C902        C  0.13662040  0.51408193  0.65352117     0.13500
C903        C  0.16594128  0.53489436  0.65245703    -0.24200
H904        H  0.15617777  0.45627918  0.65118458     0.14800
H905        H  0.06440675  0.53072120  0.66063823     0.14800
C906        C  0.05582954  0.45239249  0.66270206    -0.24200
H907        H  0.18585772  0.51371408  0.65528003     0.05000
H908        H  0.17455912  0.55659128  0.67252846     0.08200
H909        H  0.16049475  0.55031264  0.62898429     0.08200
H910        H  0.06382506  0.43235310  0.68407040     0.08200
H911        H  0.04296452  0.43522129  0.64043855     0.08200
H912        H  0.03846046  0.47387683  0.66606501     0.05000
C913        C  0.33474664  0.51957129  0.85556311    -0.20800
C914        C  0.35865298  0.54145999  0.84966449    -0.07400
C915        C  0.38106963  0.52081504  0.83956320     0.13500
C916        C  0.38189930  0.47918798  0.84066584    -0.20900
C917        C  0.36124668  0.45764913  0.85181842    -0.07400
C918        C  0.33571304  0.47805352  0.85685415     0.13500
C919        C  0.30978594  0.45670206  0.86447078    -0.24200
H920        H  0.31647278  0.53507678  0.86163886     0.14800
H921        H  0.40074273  0.46366433  0.83556786     0.14800
C922        C  0.40570030  0.54187776  0.82971977    -0.24200
H923        H  0.28992550  0.47707284  0.86359626     0.05000
H924        H  0.31950064  0.44387405  0.88920104     0.08200
H925        H  0.29941191  0.43297834  0.84642213     0.08200
H926        H  0.42234143  0.55878573  0.85046382     0.08200
H927        H  0.39345400  0.56214289  0.80909295     0.08200
H928        H  0.42047247  0.52082082  0.82180728     0.05000
C929        C  0.45668117  0.60433666  0.49763440    -0.20800
C930        C  0.45189978  0.61761754  0.97212560    -0.07400
C931        C  0.48483997  0.62368285  0.97748278     0.13500
C932        C  0.01991354  0.60981879  0.50220559    -0.17700
C933        C  0.01345175  0.60924534  0.53103545    -0.07400
C934        C  0.48121263  0.60454161  0.52857986     0.13500
C935        C  0.47161330  0.60252186  0.55774057    -0.24200
H936        H  0.43202828  0.60250013  0.49613113     0.14800
H937        H  0.03323820  0.62731248  0.01254280     0.14800
C938        C  0.49594341  0.63560432  0.95058345    -0.24200
H939        H  0.44532500  0.59853986  0.55080194     0.05000
H940        H  0.47802404  0.63050185  0.57166374     0.08200
H941        H  0.48375315  0.57700799  0.57329782     0.08200
H942        H  0.48469384  0.66425142  0.93990308     0.08200
H943        H  0.48955446  0.61233864  0.93168926     0.08200
H944        H  0.02246990  0.64122813  0.95903027     0.05000
C945        C  0.13595537  0.01476201  0.84246824    -0.20800
C946        C  0.11229051  0.03707157  0.84881174    -0.07400
C947        C  0.08411943  0.01747683  0.84818759     0.13500
C948        C  0.08318183  0.97589360  0.84702082    -0.20900
C949        C  0.10942943  0.95347509  0.84625518    -0.07400
C950        C  0.13515695  0.97331966  0.84155885     0.13500
C951        C  0.16335892  0.95146708  0.83845180    -0.24200
H952        H  0.15686139  0.02946774  0.84108409     0.14800
H953        H  0.06277546  0.96069860  0.84915349     0.14800
C954        C  0.05533771  0.03954265  0.84967537    -0.24200
H955        H  0.18116921  0.97199644  0.83503951     0.05000
H956        H  0.15490395  0.93164738  0.81709408     0.08200
H957        H  0.17595957  0.93391676  0.86072725     0.08200
H958        H  0.04770452  0.06271842  0.83053918     0.08200
H959        H  0.06102763  0.05315454  0.87382863     0.08200
H960        H  0.03462870  0.01951177  0.84562828     0.05000
C961        C  0.13655341  0.75427116  0.77322816    -0.20800
C962        C  0.10898815  0.76636757  0.77881717    -0.07400
C963        C  0.07837556  0.75661436  0.75562930     0.13500
C964        C  0.07632624  0.73509860  0.72782977    -0.20900
C965        C  0.10391588  0.72282126  0.72234784    -0.07400
C966        C  0.13445947  0.73265213  0.74546621     0.13500
C967        C  0.16503651  0.71948976  0.74159533    -0.24200
H968        H  0.15999474  0.76067273  0.79126333     0.14800
H969        H  0.05290713  0.72878895  0.70974488     0.14800
C970        C  0.04766242  0.76974373  0.75937745    -0.24200
H971        H  0.18657528  0.72713761  0.76305809     0.05000
H972        H  0.16745899  0.73444445  0.72043383     0.08200
H973        H  0.16487508  0.68689038  0.73835429     0.08200
H974        H  0.04797841  0.80228159  0.76299386     0.08200
H975        H  0.04472591  0.75447435  0.78022664     0.08200
H976        H  0.02622854  0.76264246  0.73760887     0.05000
C977        C  0.13603588  0.74429163  0.53203041    -0.20800
C978        C  0.10491709  0.74143119  0.53246822    -0.07400
C979        C  0.07816595  0.75234838  0.50506524     0.13500
C980        C  0.07137959  0.77121137  0.97505913    -0.20900
C981        C  0.09386110  0.75227174  0.96429074    -0.07400
C982        C  0.10830725  0.71644967  0.97916103     0.13500
C983        C  0.13186481  0.69365454  0.96868934    -0.24200
H984        H  0.15645887  0.73604408  0.55340730     0.14800
H985        H  0.05918837  0.79790777  0.96317533     0.14800
C986        C  0.04452760  0.74976029  0.50487576    -0.24200
H987        H  0.19246753  0.75614554  0.52956700     0.05000
H988        H  0.15268551  0.71264055  0.97072064     0.08200
H989        H  0.11989579  0.68341139  0.94336833     0.08200
H990        H  0.04203162  0.76945631  0.52380579     0.08200
H991        H  0.03931620  0.71880274  0.50975963     0.08200
H992        H  0.02843082  0.80294864  0.99475104     0.05000
C993        C  0.20545640  0.70907667  0.85885120    -0.20800
C994        C  0.20708507  0.73013966  0.88680201    -0.07400
C995        C  0.23728214  0.73429789  0.91220915     0.13500
C996        C  0.26500731  0.71983384  0.90816599    -0.20900
C997        C  0.26373050  0.70156851  0.87935577    -0.07400
C998        C  0.23352824  0.69499827  0.85475390     0.13500
C999        C  0.23115059  0.67523701  0.82365288    -0.24200
H1000       H  0.18243751  0.70620394  0.83915217     0.14800
H1001       H  0.28820153  0.72420102  0.92731525     0.14800
C1002       C  0.24052212  0.75440453  0.94356879    -0.24200
H1003       H  0.20580253  0.67250688  0.80681362     0.05000
H1004       H  0.24177284  0.64505469  0.82886368     0.08200
H1005       H  0.24434821  0.69282010  0.81145724     0.08200
H1006       H  0.22461349  0.73980930  0.95434051     0.08200
H1007       H  0.23405732  0.78621658  0.93942369     0.08200
H1008       H  0.26553069  0.75267101  0.96147876     0.05000
C1009       C  0.99151079  0.76655989  0.84211089    -0.20800
C1010       C  0.00682350  0.79865827  0.86137737    -0.07400
C1011       C  0.49317276  0.81541466  0.88305300     0.13500
C1012       C  0.46600487  0.79755418  0.88625421    -0.20900
C1013       C  0.45268733  0.76310633  0.86906147    -0.07400
C1014       C  0.46477101  0.74863564  0.84579454     0.13500
C1015       C  0.44961079  0.71419661  0.82414444    -0.24200
H1016       H  0.00178769  0.75390409  0.82563883     0.14800
H1017       H  0.45632227  0.80912514  0.90354058     0.14800
C1018       C  0.50801215  0.85069909  0.90372397    -0.24200
H1019       H  0.96240414  0.70679745  0.80724914     0.05000
H1020       H  0.42447953  0.72195242  0.80906347     0.08200
H1021       H  0.45034132  0.68724277  0.83869144     0.08200
H1022       H  0.00763845  0.87657841  0.88717564     0.08200
H1023       H  0.03261483  0.84428138  0.91921366     0.08200
H1024       H  0.49444752  0.85958954  0.91915244     0.05000
C1025       C  0.33394963  0.97839017  0.66332539    -0.20800
C1026       C  0.35808093  0.95666425  0.65740579    -0.07400
C1027       C  0.38570876  0.97710231  0.65739383     0.13500
C1028       C  0.38580852  0.01868795  0.65765845    -0.20900
C1029       C  0.35930408  0.04054391  0.65831211    -0.07400
C1030       C  0.33410930  0.02007327  0.66368829     0.13500
C1031       C  0.30593076  0.04158175  0.66708064    -0.24200
H1032       H  0.31325011  0.96297902  0.66453660     0.14800
H1033       H  0.40578020  0.03425201  0.65491580     0.14800
C1034       C  0.41490577  0.95565794  0.65619220    -0.24200
H1035       H  0.28862907  0.02080980  0.67116271     0.05000
H1036       H  0.29281095  0.05869376  0.64469801     0.08200
H1037       H  0.31451933  0.06185267  0.68814714     0.08200
H1038       H  0.40985462  0.94235006  0.63204248     0.08200
H1039       H  0.42253958  0.93229624  0.67516892     0.08200
H1040       H  0.43543507  0.97610352  0.66067097     0.05000
C1041       C  0.35668615  0.72603351  0.72508751    -0.20800
C1042       C  0.34879301  0.76672391  0.72028258    -0.07400
C1043       C  0.34246820  0.78753970  0.74498820     0.13500
C1044       C  0.34474828  0.76744736  0.77347439    -0.20900
C1045       C  0.35316697  0.72707030  0.77836984    -0.07400
C1046       C  0.35900830  0.70604426  0.75365428     0.13500
C1047       C  0.36681739  0.66238391  0.75673339    -0.24200
H1048       H  0.36064638  0.70930280  0.70608943     0.14800
H1049       H  0.34073166  0.78389853  0.79259064     0.14800
C1050       C  0.33402513  0.83103172  0.74221608    -0.24200
H1051       H  0.36807298  0.65011986  0.73404423     0.05000
H1052       H  0.34793676  0.64603752  0.76219070     0.08200
H1053       H  0.39050223  0.65703570  0.77623495     0.08200
H1054       H  0.31030600  0.83601392  0.72264763     0.08200
H1055       H  0.35280049  0.84813754  0.73719057     0.08200
H1056       H  0.33232841  0.84277631  0.76487886     0.05000
C1057       C  0.35347306  0.78879892  0.50258015    -0.20800
C1058       C  0.35459474  0.76241311  0.52753487    -0.07400
C1059       C  0.36648656  0.72364409  0.52767938     0.13500
C1060       C  0.36910581  0.72102288  0.99925868    -0.20900
C1061       C  0.36056382  0.74460678  0.97130741    -0.07400
C1062       C  0.34300002  0.77992911  0.96911176     0.13500
C1063       C  0.33257244  0.80556487  0.93916156    -0.24200
H1064       H  0.34516014  0.81886789  0.50296208     0.14800
H1065       H  0.38219095  0.69357513  0.00042728     0.14800
C1066       C  0.36980150  0.69453031  0.55452468    -0.24200
H1067       H  0.31859317  0.83180818  0.94159855     0.05000
H1068       H  0.31714541  0.78834750  0.91793269     0.08200
H1069       H  0.35398961  0.81632751  0.93474419     0.08200
H1070       H  0.34581761  0.68818276  0.55535236     0.08200
H1071       H  0.38576051  0.70683472  0.57808594     0.08200
H1072       H  0.38037246  0.66594380  0.55090881     0.05000
C1073       C  0.45724924  0.74983484  0.64460437    -0.20800
C1074       C  0.44764160  0.78808047  0.63222755    -0.07400
C1075       C  0.46647999  0.80805709  0.61730522     0.13500
C1076       C  0.99507769  0.78972005  0.61504055    -0.20900
C1077       C  0.00269217  0.75002272  0.62464558    -0.07400
C1078       C  0.48269241  0.72974726  0.64008562     0.13500
C1079       C  0.48935233  0.68758120  0.65225954    -0.24200
H1080       H  0.44338029  0.73431326  0.65637991     0.14800
H1081       H  0.00953557  0.80523920  0.60393927     0.14800
C1082       C  0.45763968  0.84892495  0.60311048    -0.24200
H1083       H  0.47382911  0.67836916  0.66557487     0.05000
H1084       H  0.01568937  0.68445697  0.66845475     0.08200
H1085       H  0.48446095  0.66694875  0.63160763     0.08200
H1086       H  0.45776170  0.86996308  0.62232944     0.08200
H1087       H  0.43344680  0.84853957  0.58364253     0.08200
H1088       H  0.47486365  0.85990636  0.59235849     0.05000
C1089       C  0.20605693  0.69089164  0.60122148    -0.20800
C1090       C  0.19985956  0.69676790  0.62981548    -0.07400
C1091       C  0.22199325  0.71811601  0.65544887     0.13500
C1092       C  0.24771232  0.73696643  0.65069533    -0.20900
C1093       C  0.25227840  0.73414163  0.62114775    -0.07400
C1094       C  0.23258661  0.70882888  0.59688602     0.13500
C1095       C  0.23928592  0.70153362  0.56653883    -0.24200
H1096       H  0.18924427  0.67394491  0.58164939     0.14800
H1097       H  0.26397347  0.75493073  0.66992216     0.14800
C1098       C  0.21819192  0.72137388  0.68762717    -0.24200
H1099       H  0.22008522  0.68367095  0.54877408     0.05000
H1100       H  0.26238922  0.68527165  0.57278567     0.08200
H1101       H  0.24138606  0.73001008  0.55503615     0.08200
H1102       H  0.21757948  0.69128178  0.69750779     0.08200
H1103       H  0.19557266  0.73729343  0.68460336     0.08200
H1104       H  0.23836465  0.73780068  0.70551236     0.05000
C1105       C  0.22190169  0.89783379  0.97490889    -0.20800
C1106       C  0.19375539  0.87812483  0.97316239    -0.07400
C1107       C  0.20152437  0.88464928  0.50075368     0.13500
C1108       C  0.22820128  0.88486275  0.53014307    -0.20900
C1109       C  0.25991283  0.88617809  0.53118441    -0.07400
C1110       C  0.26446300  0.89143040  0.50128295     0.13500
C1111       C  0.29714646  0.89775363  0.49967578    -0.24200
H1112       H  0.22377538  0.90895042  0.95277430     0.14800
H1113       H  0.22410486  0.88230536  0.55263470     0.14800
C1114       C  0.16864061  0.88322120  0.50295157    -0.24200
H1115       H  0.27220555  0.93975511  0.98050816     0.05000
H1116       H  0.31210695  0.87077155  0.50789938     0.08200
H1117       H  0.30894971  0.92342792  0.51491357     0.08200
H1118       H  0.15706698  0.81735506  0.98888829     0.08200
H1119       H  0.14079620  0.86480149  0.99526822     0.08200
H1120       H  0.16989118  0.88495929  0.52835704     0.05000
Fe1121     Fe  0.80080186  0.84711861  0.13504045     1.65800
Fe1122     Fe  0.84776311  0.86015031  0.09040692     1.73200
Fe1123     Fe  0.83998230  0.76802651  0.11836064     1.54400
O1124       O  0.85260575  0.76809764  0.16782682    -0.82200
O1125       O  0.84607768  0.81878110  0.05707683    -0.80500
O1126       O  0.82510719  0.81778347  0.17908584    -0.84700
O1127       O  0.76921696  0.80152240  0.12142653    -0.79500
O1128       O  0.88731815  0.77887650  0.12335467    -0.81300
O1129       O  0.80241311  0.87739919  0.06076067    -0.84100
C1130       C  0.76978129  0.76494082  0.11589003     0.96700
C1131       C  0.84294043  0.78682753  0.18741579     1.04100
O1132       O  0.82985285  0.82507698  0.11515740    -1.13000
O1133       O  0.85332600  0.90817244  0.11975974    -0.75500
O1134       O  0.82779971  0.89738066  0.15308983    -0.79000
O1135       O  0.79424706  0.74802763  0.11358856    -0.79700
C1136       C  0.84554886  0.91856201  0.14311867     0.95600
O1137       O  0.77230639  0.87471897  0.09108394    -0.77600
O1138       O  0.89452178  0.84321208  0.11622893    -0.82800
C1139       C  0.83753130  0.78335074  0.05082709     0.98200
C1140       C  0.90495088  0.80784505  0.12202623     1.04100
O1141       O  0.82811702  0.76202428  0.06911310    -0.78500
C1142       C  0.77550487  0.88060826  0.06390960     1.02400
Fe1143     Fe  0.66316986  0.83986353  0.36897536     1.65800
Fe1144     Fe  0.60928790  0.85588813  0.40539330     1.73200
Fe1145     Fe  0.62169224  0.76314225  0.38389735     1.54400
O1146       O  0.61086616  0.76203892  0.33507076    -0.82200
O1147       O  0.60619278  0.81470423  0.43789966    -0.80500
O1148       O  0.64249196  0.80743054  0.32524736    -0.84700
O1149       O  0.69540419  0.79528271  0.38797532    -0.79500
O1150       O  0.57364077  0.77440235  0.37659824    -0.81300
O1151       O  0.65272646  0.87232445  0.43871087    -0.84100
C1152       C  0.69359938  0.75856965  0.39191384     0.96700
C1153       C  0.62288978  0.77814768  0.31630885     1.04100
O1154       O  0.63116443  0.81975453  0.38538194    -1.13000
O1155       O  0.60853809  0.90412132  0.37686872    -0.75500
O1156       O  0.63668186  0.88932824  0.34664723    -0.79000
O1157       O  0.66771553  0.74212723  0.39051593    -0.79700
C1158       C  0.61959933  0.91323249  0.35539112     0.95600
O1159       O  0.68722456  0.87013588  0.41314335    -0.77600
O1160       O  0.56428710  0.83949172  0.37455313    -0.82800
C1161       C  0.61855605  0.78123988  0.44790524     0.98200
C1162       C  0.55466836  0.80392339  0.37262475     1.04100
O1163       O  0.63247856  0.76054612  0.43310155    -0.78500
C1164       C  0.68086677  0.87617639  0.43874324     1.02400
Fe1165     Fe  0.91249182  0.65294639  0.36707401     1.65800
Fe1166     Fe  0.86323415  0.64218566  0.40910450     1.73200
Fe1167     Fe  0.87213776  0.73222955  0.38042808     1.54400
O1168       O  0.91562659  0.75147795  0.37852050    -0.82200
O1169       O  0.81683071  0.65917333  0.38093786    -0.80500
O1170       O  0.94523929  0.69751668  0.38310666    -0.84700
O1171       O  0.88992423  0.68377006  0.32315401    -0.79500
O1172       O  0.88846233  0.73944211  0.43008335    -0.81300
O1173       O  0.85957155  0.59211178  0.38152270    -0.84100
C1174       C  0.86900355  0.71168304  0.31308312     0.96700
C1175       C  0.94124549  0.73446650  0.37945806     1.04100
O1176       O  0.88243561  0.67555985  0.38498605    -1.13000
O1177       O  0.90788278  0.62530708  0.44035579    -0.75500
O1178       O  0.93865460  0.62342257  0.41079924    -0.79000
O1179       O  0.85557808  0.72772192  0.33088454    -0.79700
C1180       C  0.93485744  0.61930315  0.43781177     0.95600
O1181       O  0.88467037  0.60383253  0.34786333    -0.77600
O1182       O  0.86470130  0.68635982  0.44087349    -0.82800
C1183       C  0.80799074  0.69500472  0.38089709     0.98200
C1184       C  0.87701927  0.72034818  0.44809626     1.04100
O1185       O  0.82644679  0.72364779  0.38118306    -0.78500
C1186       C  0.86868647  0.58122393  0.35896449     1.02400
Fe1187     Fe  0.55143670  0.65060142  0.13773170     1.65800
Fe1188     Fe  0.59688075  0.63730787  0.09298227     1.73200
Fe1189     Fe  0.58717029  0.72981420  0.11918992     1.54400
O1190       O  0.53959798  0.74710647  0.10900760    -0.82200
O1191       O  0.64131350  0.66513876  0.10666472    -0.80500
O1192       O  0.52471600  0.70059741  0.13527073    -0.84700
O1193       O  0.58257013  0.67047332  0.18298524    -0.79500
O1194       O  0.57987161  0.73380837  0.07041249    -0.81300
O1195       O  0.61515709  0.59880633  0.13139844    -0.84100
C1196       C  0.59462408  0.70531179  0.18988771     0.96700
C1197       C  0.52123533  0.73469805  0.12291475     1.04100
O1198       O  0.57916448  0.67299144  0.11703539    -1.13000
O1199       O  0.55383397  0.60628567  0.07328593    -0.75500
O1200       O  0.51928115  0.63500239  0.09179681    -0.79000
O1201       O  0.59583996  0.72976894  0.16842346    -0.79700
C1202       C  0.52539888  0.61754093  0.06924674     0.95600
O1203       O  0.57263912  0.59454808  0.14480226    -0.77600
O1204       O  0.58087797  0.67198491  0.05290559    -0.82800
C1205       C  0.65186585  0.69863540  0.11884795     0.98200
C1206       C  0.57883869  0.70903812  0.04847061     1.04100
O1207       O  0.63574682  0.72214396  0.12937738    -0.78500
C1208       C  0.59819322  0.57951408  0.14350617     1.02400
Fe1209     Fe  0.81425389  0.15910242  0.13541577     1.65800
Fe1210     Fe  0.86575125  0.14090232  0.09681118     1.73200
Fe1211     Fe  0.86129517  0.23237149  0.12601172     1.54400
O1212       O  0.81834001  0.25646015  0.12724259    -0.82200
O1213       O  0.91287922  0.15372776  0.12530936    -0.80500
O1214       O  0.78462897  0.20627933  0.11624254    -0.84700
O1215       O  0.83620836  0.18981436  0.17946336    -0.79500
O1216       O  0.84697377  0.24062330  0.07673197    -0.81300
O1217       O  0.86612467  0.09230263  0.12523907    -0.84100
C1218       C  0.85986747  0.21373952  0.19137347     0.96700
C1219       C  0.79093634  0.24221560  0.12311165     1.04100
O1220       O  0.84740602  0.17709124  0.11993238    -1.13000
O1221       O  0.82100930  0.12688574  0.06440950    -0.75500
O1222       O  0.78828849  0.12966133  0.09172292    -0.79000
O1223       O  0.87622047  0.22594727  0.17514951    -0.79700
C1224       C  0.79328567  0.12337265  0.06557215     0.95600
O1225       O  0.83912892  0.10847428  0.15658859    -0.77600
O1226       O  0.86682393  0.18411549  0.06517624    -0.82800
C1227       C  0.92439599  0.18846878  0.12834284     0.98200
C1228       C  0.85655043  0.21924999  0.05842847     1.04100
O1229       O  0.90731929  0.21900915  0.12742665    -0.78500
C1230       C  0.85508338  0.08381797  0.14700389     1.02400
Fe1231     Fe  0.67268525  0.14898776  0.36995454     1.65800
Fe1232     Fe  0.62497272  0.13286383  0.41178977     1.73200
Fe1233     Fe  0.64052784  0.22704884  0.39363276     1.54400
O1234       O  0.68928353  0.23908180  0.40786184    -0.82200
O1235       O  0.58164477  0.16370142  0.39735245    -0.80500
O1236       O  0.70035604  0.19839069  0.37463478    -0.84700
O1237       O  0.64206583  0.17295508  0.32662755    -0.79500
O1238       O  0.64510582  0.22603761  0.44198858    -0.81300
O1239       O  0.60716606  0.09817981  0.37085647    -0.84100
C1240       C  0.63449800  0.20971256  0.32185052     0.96700
C1241       C  0.70610874  0.22937753  0.39150864     1.04100
O1242       O  0.64537429  0.17003322  0.39161121    -1.13000
O1243       O  0.66752947  0.09988644  0.43116737    -0.75500
O1244       O  0.70353008  0.12907706  0.41477829    -0.79000
O1245       O  0.63482859  0.23279437  0.34483752    -0.79700
C1246       C  0.69634357  0.11035214  0.43612988     0.95600
O1247       O  0.65081641  0.09408551  0.35953272    -0.77600
O1248       O  0.63905335  0.16300301  0.45426994    -0.82800
C1249       C  0.57332531  0.19898667  0.38764624     0.98200
C1250       C  0.64280000  0.19933045  0.46131028     1.04100
O1251       O  0.59149694  0.22288231  0.38041295    -0.78500
C1252       C  0.62436521  0.07972484  0.35844118     1.02400
Fe1253     Fe  0.92084794  0.34583744  0.37051323     1.65800
Fe1254     Fe  0.87261582  0.35311879  0.41371604     1.73200
Fe1255     Fe  0.88294766  0.26426517  0.38372945     1.54400
O1256       O  0.86790448  0.26876892  0.33433639    -0.82200
O1257       O  0.87405686  0.30841171  0.44482872    -0.80500
O1258       O  0.90051966  0.31452412  0.32681927    -0.84700
O1259       O  0.95503590  0.30288799  0.38787780    -0.79500
O1260       O  0.83604650  0.27229026  0.38168344    -0.81300
O1261       O  0.91707681  0.36899677  0.44515431    -0.84100
C1262       C  0.95394950  0.26550881  0.38808428     0.96700
C1263       C  0.88051031  0.28607439  0.31655288     1.04100
O1264       O  0.89188501  0.32113678  0.38878195    -1.13000
O1265       O  0.86816009  0.40352760  0.38668679    -0.75500
O1266       O  0.89028200  0.39326864  0.35031642    -0.79000
O1267       O  0.92842521  0.24708020  0.38529251    -0.79700
C1268       C  0.87401797  0.41456618  0.36226559     0.95600
O1269       O  0.94583739  0.37631427  0.41387534    -0.77600
O1270       O  0.82676394  0.33680927  0.38526540    -0.82800
C1271       C  0.88655047  0.27440081  0.45145713     0.98200
C1272       C  0.81758617  0.30102838  0.38185862     1.04100
O1273       O  0.89748678  0.25547237  0.43303645    -0.78500
C1274       C  0.94308422  0.37729220  0.44156839     1.02400
Fe1275     Fe  0.56544954  0.33540107  0.13591588     1.65800
Fe1276     Fe  0.62014708  0.34831624  0.10030103     1.73200
Fe1277     Fe  0.61452425  0.26014607  0.13329514     1.54400
O1278       O  0.62684286  0.27084914  0.18137723    -0.82200
O1279       O  0.62573784  0.30171350  0.07320680    -0.80500
O1280       O  0.58567811  0.30802473  0.18223329    -0.84700
O1281       O  0.53623582  0.28766238  0.11840053    -0.79500
O1282       O  0.66135583  0.27289258  0.13711236    -0.81300
O1283       O  0.57633478  0.35933701  0.06469099    -0.84100
C1284       C  0.54230993  0.25165260  0.12578938     0.96700
C1285       C  0.60931720  0.28426993  0.19597374     1.04100
O1286       O  0.60006308  0.31491248  0.12346869    -1.13000
O1287       O  0.61711733  0.39995822  0.12396108    -0.75500
O1288       O  0.58947691  0.38691059  0.15516844    -0.79000
O1289       O  0.57030804  0.23716958  0.13233824    -0.79700
C1290       C  0.60531919  0.41052861  0.14468350     0.95600
O1291       O  0.54142430  0.36156425  0.08973081    -0.77600
O1292       O  0.66614667  0.33792268  0.13309249    -0.82800
C1293       C  0.61660715  0.26602038  0.06796182     0.98200
C1294       C  0.67834003  0.30334015  0.13815179     1.04100
O1295       O  0.60364225  0.24781951  0.08509106    -0.78500
C1296       C  0.54801338  0.36416632  0.06401904     1.02400
C1297       C  0.00084297  0.36556639  0.47266785    -0.20800
C1298       C  0.97207534  0.38318944  0.47157712    -0.07400
C1299       C  0.96681391  0.39578067  0.00030687     0.13500
C1300       C  0.99320904  0.39126546  0.02986206    -0.20900
C1301       C  0.52176413  0.37166544  0.03157309    -0.07400
C1302       C  0.52386175  0.35781486  0.00205811     0.13500
C1303       C  0.55300455  0.33604660  0.00095430    -0.24200
H1304       H  0.00216699  0.35354366  0.45057664     0.14800
H1305       H  0.99142260  0.40255120  0.05196384     0.14800
C1306       C  0.93770004  0.41833408  0.00044399    -0.24200
H1307       H  0.55199407  0.32727925  0.47573141     0.05000
H1308       H  0.55807878  0.30957786  0.01695379     0.08200
H1309       H  0.57408500  0.35598246  0.00849914     0.08200
H1310       H  0.92028057  0.40218507  0.49474021     0.08200
H1311       H  0.93639415  0.44638812  0.48339773     0.08200
H1312       H  0.94184887  0.43168210  0.02447240     0.05000
C1313       C  0.63105845  0.23020067  0.23597593    -0.20800
C1314       C  0.61563804  0.26744872  0.22898752    -0.07400
C1315       C  0.60585529  0.28523132  0.25268760     0.13500
C1316       C  0.61132976  0.26505664  0.28213402    -0.20900
C1317       C  0.62666730  0.22761299  0.28893480    -0.07400
C1318       C  0.63705679  0.21040156  0.26537239     0.13500
C1319       C  0.65557115  0.17184476  0.27097613    -0.24200
H1320       H  0.63850576  0.21590853  0.21804317     0.14800
H1321       H  0.60382304  0.27899992  0.30016318     0.14800
C1322       C  0.59070507  0.32583493  0.24775166    -0.24200
H1323       H  0.66286029  0.16406668  0.25036235     0.05000
H1324       H  0.64048370  0.14726753  0.27388206     0.08200
H1325       H  0.67787615  0.17419506  0.29281508     0.08200
H1326       H  0.56709702  0.32544563  0.22747338     0.08200
H1327       H  0.60674568  0.34742871  0.24242701     0.08200
H1328       H  0.58656087  0.33618765  0.26962123     0.05000
C1329       C  0.60959997  0.20302153  0.49419147    -0.20800
C1330       C  0.63932997  0.21112923  0.49156128    -0.07400
C1331       C  0.66281100  0.23233143  0.51611226     0.13500
C1332       C  0.65094713  0.25801822  0.03595042    -0.20900
C1333       C  0.62357527  0.24571233  0.04198181    -0.07400
C1334       C  0.60370167  0.21608062  0.02256493     0.13500
C1335       C  0.57426109  0.20145109  0.02787469    -0.24200
H1336       H  0.59170091  0.18651783  0.47513474     0.14800
H1337       H  0.66698583  0.27980330  0.05150043     0.14800
C1338       C  0.69599806  0.23941012  0.51610663    -0.24200
H1339       H  0.55376814  0.19312108  0.49918730     0.05000
H1340       H  0.55785729  0.22667691  0.02668206     0.08200
H1341       H  0.58133508  0.18662472  0.05182383     0.08200
H1342       H  0.69987854  0.22535050  0.49529033     0.08200
H1343       H  0.71410338  0.22691463  0.53861039     0.08200
H1344       H  0.68656977  0.28927600  0.00102510     0.05000
C1345       C  0.73386513  0.26042269  0.35885368    -0.20800
C1346       C  0.73222090  0.25478817  0.38965944    -0.07400
C1347       C  0.75709292  0.26940263  0.41724044     0.13500
C1348       C  0.78361409  0.28774761  0.41339335    -0.20900
C1349       C  0.78599157  0.29107747  0.38277919    -0.07400
C1350       C  0.76062509  0.27798607  0.35515911     0.13500
C1351       C  0.76233748  0.28137078  0.32204284    -0.24200
H1352       H  0.71463522  0.24942662  0.33761487     0.14800
H1353       H  0.80360308  0.29720623  0.43462902     0.14800
C1354       C  0.75689803  0.26315368  0.45074768    -0.24200
H1355       H  0.74029501  0.26994892  0.30290058     0.05000
H1356       H  0.78312645  0.26399536  0.32130074     0.08200
H1357       H  0.76524701  0.31289207  0.31658494     0.08200
H1358       H  0.75568582  0.23100319  0.45543065     0.08200
H1359       H  0.73581629  0.27842227  0.45299599     0.08200
H1360       H  0.77889962  0.27506087  0.46964850     0.05000
C1361       C  0.01293144  0.26402901  0.40613254    -0.20800
C1362       C  0.98393728  0.24405045  0.39069815    -0.07400
C1363       C  0.98445668  0.20791728  0.37460037     0.13500
C1364       C  0.01390260  0.19334036  0.37411716    -0.20900
C1365       C  0.54250839  0.21471917  0.38803347    -0.07400
C1366       C  0.54195347  0.25045736  0.40450670     0.13500
C1367       C  0.57176921  0.27463393  0.42099498    -0.24200
H1368       H  0.01284628  0.29139668  0.41882217     0.14800
H1369       H  0.01452269  0.16570234  0.36199380     0.14800
C1370       C  0.95411235  0.18557103  0.35664148    -0.24200
H1371       H  0.56687652  0.30089954  0.43345031     0.05000
H1372       H  0.58148857  0.28582870  0.40297776     0.08200
H1373       H  0.59003982  0.25635262  0.43945852     0.08200
H1374       H  0.93720627  0.20479538  0.33756775     0.08200
H1375       H  0.94270769  0.17589559  0.37375287     0.08200
H1376       H  0.95893062  0.15873361  0.34469252     0.05000
C1377       C  0.84191518  0.23063850  0.23661106    -0.20800
C1378       C  0.86668758  0.23095659  0.22427677    -0.07400
C1379       C  0.89550417  0.25143729  0.24202178     0.13500
C1380       C  0.89853974  0.27025252  0.27124381    -0.20900
C1381       C  0.87375578  0.26975352  0.28350190    -0.07400
C1382       C  0.84488061  0.24979827  0.26562299     0.13500
C1383       C  0.81652299  0.24936650  0.27622342    -0.24200
H1384       H  0.81957409  0.21592013  0.22309824     0.14800
H1385       H  0.92089388  0.28482210  0.28505587     0.14800
C1386       C  0.92360546  0.25340973  0.23101057    -0.24200
H1387       H  0.79504779  0.23590478  0.25768947     0.05000
H1388       H  0.81008537  0.28013715  0.28033661     0.08200
H1389       H  0.82218180  0.23154080  0.29864446     0.08200
H1390       H  0.91715035  0.27124943  0.20848618     0.08200
H1391       H  0.93096837  0.22307011  0.22692767     0.08200
H1392       H  0.94478684  0.26777136  0.24928822     0.05000
C1393       C  0.88458236  0.26270257  0.03425777    -0.20800
C1394       C  0.85964262  0.23580090  0.02958444    -0.07400
C1395       C  0.84418067  0.21806574  0.99909754     0.13500
C1396       C  0.86250727  0.22493808  0.47512941    -0.20900
C1397       C  0.88435445  0.25596999  0.48015254    -0.07400
C1398       C  0.89607501  0.27565933  0.51021696     0.13500
C1399       C  0.92045494  0.30832762  0.51668126    -0.24200
H1400       H  0.89722946  0.27471016  0.05819357     0.14800
H1401       H  0.85276127  0.21105329  0.45153240     0.14800
C1402       C  0.81722478  0.18899344  0.99342146    -0.24200
H1403       H  0.92804413  0.31930194  0.54193514     0.05000
H1404       H  0.91013779  0.33370443  0.50027317     0.08200
H1405       H  0.94210607  0.29723836  0.51272161     0.08200
H1406       H  0.79772833  0.20288374  0.99965581     0.08200
H1407       H  0.82620021  0.16223006  0.00861211     0.08200
H1408       H  0.80688668  0.17938286  0.96775677     0.05000
C1409       C  0.97692847  0.22023824  0.15587525    -0.20800
C1410       C  0.95812713  0.19527207  0.13118393    -0.07400
C1411       C  0.96937669  0.18458764  0.10627793     0.13500
C1412       C  0.49831959  0.20106623  0.10597749    -0.20900
C1413       C  0.51609549  0.22788675  0.12986550    -0.07400
C1414       C  0.00555209  0.23651719  0.15550981     0.13500
C1415       C  0.02397476  0.26417109  0.18235330    -0.24200
H1416       H  0.96823724  0.22871775  0.17475398     0.14800
H1417       H  0.50606971  0.19467013  0.08607196     0.14800
C1418       C  0.94966748  0.15864883  0.07867071    -0.24200
H1419       H  0.01265530  0.26736785  0.20067242     0.05000
H1420       H  0.02497937  0.29404505  0.17238219     0.08200
H1421       H  0.54865534  0.25208514  0.19498076     0.08200
H1422       H  0.92609448  0.17294456  0.06542128     0.08200
H1423       H  0.94586386  0.12943355  0.08812534     0.08200
H1424       H  0.96172169  0.15355135  0.06116681     0.05000
C1425       C  0.75872570  0.25312444  0.15684069    -0.20800
C1426       C  0.76649977  0.26582322  0.13050357    -0.07400
C1427       C  0.74871292  0.29700850  0.11082524     0.13500
C1428       C  0.72159317  0.31215371  0.11611887    -0.20900
C1429       C  0.71201481  0.29663879  0.14065885    -0.07400
C1430       C  0.73192343  0.26825754  0.16232237     0.13500
C1431       C  0.72483928  0.25350288  0.19106043    -0.24200
H1432       H  0.77296709  0.22980868  0.17243199     0.14800
H1433       H  0.70643250  0.33395226  0.09944606     0.14800
C1434       C  0.75728894  0.31262336  0.08333254    -0.24200
H1435       H  0.74391824  0.23309237  0.20639267     0.05000
H1436       H  0.70188202  0.23709078  0.18307606     0.08200
H1437       H  0.72341380  0.27897775  0.20625145     0.08200
H1438       H  0.75631381  0.28835621  0.06618785     0.08200
H1439       H  0.78196321  0.32487190  0.09296836     0.08200
H1440       H  0.74054944  0.33649125  0.06981279     0.05000
C1441       C  0.77428274  0.10197776  0.00752117    -0.20800
C1442       C  0.76625245  0.11352739  0.03422201    -0.07400
C1443       C  0.73327612  0.11991673  0.02871132     0.13500
C1444       C  0.71007390  0.11578370  0.99717252    -0.20900
C1445       C  0.72136266  0.10420179  0.46907085    -0.07400
C1446       C  0.75408347  0.09712117  0.47462501     0.13500
C1447       C  0.76524075  0.08774608  0.44726187    -0.24200
H1448       H  0.80194676  0.09403864  0.51009574     0.14800
H1449       H  0.68511617  0.12172277  0.99317843     0.14800
C1450       C  0.72213050  0.13327971  0.05523080    -0.24200
H1451       H  0.79125833  0.08034560  0.45626190     0.05000
H1452       H  0.76145164  0.11366594  0.43088692     0.08200
H1453       H  0.75183248  0.06193508  0.43346249     0.08200
H1454       H  0.73304413  0.16226753  0.06485312     0.08200
H1455       H  0.72888627  0.11086061  0.07493997     0.08200
H1456       H  0.69564239  0.13721186  0.04636426     0.05000
C1457       C  0.63349995  0.47504427  0.15135520    -0.20800
C1458       C  0.60837148  0.45293864  0.15465014    -0.07400
C1459       C  0.58401799  0.47330184  0.16180641     0.13500
C1460       C  0.58338999  0.51490623  0.16124390    -0.20900
C1461       C  0.60603532  0.53706093  0.15326146    -0.07400
C1462       C  0.63277006  0.51667056  0.15055045     0.13500
C1463       C  0.66017906  0.53788026  0.14559380    -0.24200
H1464       H  0.65289723  0.45957528  0.14719736     0.14800
H1465       H  0.56352826  0.53002823  0.16475179     0.14800
C1466       C  0.55721818  0.45189706  0.16781189    -0.24200
H1467       H  0.67999689  0.51721785  0.14688408     0.05000
H1468       H  0.67019475  0.56045259  0.16477188     0.08200
H1469       H  0.65190949  0.55205041  0.12133317     0.08200
H1470       H  0.56736658  0.43192768  0.18907981     0.08200
H1471       H  0.54296905  0.43456834  0.14610952     0.08200
H1472       H  0.54046184  0.47272045  0.17301493     0.05000
C1473       C  0.83939156  0.51797951  0.35532425    -0.20800
C1474       C  0.86267311  0.53926649  0.34781793    -0.07400
C1475       C  0.88333646  0.51801873  0.33571955     0.13500
C1476       C  0.88374730  0.47637393  0.33689328    -0.20900
C1477       C  0.86426641  0.45548837  0.34993541    -0.07400
C1478       C  0.83972669  0.47644010  0.35633988     0.13500
C1479       C  0.81422394  0.45558274  0.36503255    -0.24200
H1480       H  0.82223386  0.53391706  0.36281513     0.14800
H1481       H  0.90159778  0.46037185  0.33050380     0.14800
C1482       C  0.90671070  0.53846762  0.32372300    -0.24200
H1483       H  0.79487238  0.47634728  0.36493591     0.05000
H1484       H  0.82449667  0.44260201  0.38967571     0.08200
H1485       H  0.80302998  0.43202929  0.34706594     0.08200
H1486       H  0.92481722  0.55482062  0.34378492     0.08200
H1487       H  0.89354761  0.55915612  0.30372771     0.08200
H1488       H  0.91991666  0.51705708  0.31417176     0.05000
C1489       C  0.94443456  0.60671738  0.99869701    -0.20800
C1490       C  0.96278616  0.60993070  0.46860381    -0.07400
C1491       C  0.99533562  0.61116364  0.47133214     0.13500
C1492       C  0.50806806  0.62052959  0.00913587    -0.17700
C1493       C  0.49971599  0.61310520  0.03625744    -0.07400
C1494       C  0.96765812  0.60491791  0.03044891     0.13500
C1495       C  0.95721426  0.59418687  0.05800638    -0.24200
H1496       H  0.91960275  0.60098888  0.99522064     0.14800
H1497       H  0.54476578  0.61116669  0.50407672     0.14800
C1498       C  0.00482904  0.61599627  0.44228841    -0.24200
H1499       H  0.93134281  0.58645652  0.04929433     0.05000
H1500       H  0.96091184  0.61955373  0.07478406     0.08200
H1501       H  0.97122774  0.56819605  0.07129337     0.08200
H1502       H  0.99594208  0.64487433  0.43027874     0.08200
H1503       H  0.99486073  0.59136993  0.42504983     0.08200
H1504       H  0.53148814  0.61478245  0.44941921     0.05000
C1505       C  0.63871967  0.01722678  0.33713014    -0.20800
C1506       C  0.61591172  0.03859040  0.34566705    -0.07400
C1507       C  0.58866749  0.01797311  0.34644058     0.13500
C1508       C  0.58853855  0.97634262  0.34536343    -0.20900
C1509       C  0.61453433  0.95477285  0.34298198    -0.07400
C1510       C  0.63842971  0.97567339  0.33573347     0.13500
C1511       C  0.66514068  0.95483304  0.32894694    -0.24200
H1512       H  0.65860805  0.03275681  0.33422479     0.14800
H1513       H  0.56913182  0.96046935  0.34897764     0.14800
C1514       C  0.56008403  0.03897902  0.34938539    -0.24200
H1515       H  0.68099121  0.97604468  0.32289566     0.05000
H1516       H  0.65481215  0.93471678  0.30796171     0.08200
H1517       H  0.68035161  0.93773688  0.35055039     0.08200
H1518       H  0.55122150  0.06211821  0.33030952     0.08200
H1519       H  0.56653825  0.05246853  0.37367472     0.08200
H1520       H  0.53997184  0.01826356  0.34623340     0.05000
C1521       C  0.63609232  0.76517325  0.26695337    -0.20800
C1522       C  0.61499896  0.75964944  0.28352519    -0.07400
C1523       C  0.58867104  0.73322310  0.26982991     0.13500
C1524       C  0.58452538  0.71365730  0.24066477    -0.20900
C1525       C  0.60485723  0.72038100  0.22368553    -0.07400
C1526       C  0.63133888  0.74613612  0.23730455     0.13500
C1527       C  0.65535964  0.75271201  0.22129825    -0.24200
H1528       H  0.65673444  0.78418860  0.27741887     0.14800
H1529       H  0.56420424  0.69413299  0.23020856     0.14800
C1530       C  0.56386549  0.72590757  0.28481153    -0.24200
H1531       H  0.67595433  0.77082627  0.23662114     0.05000
H1532       H  0.64401656  0.76866717  0.19799086     0.08200
H1533       H  0.66496343  0.72378197  0.21698978     0.08200
H1534       H  0.55364559  0.75450981  0.28890765     0.08200
H1535       H  0.57472114  0.70938369  0.30793239     0.08200
H1536       H  0.54358080  0.70775925  0.26893573     0.05000
C1537       C  0.59971668  0.70190276  0.00492868    -0.20800
C1538       C  0.57999461  0.72327159  0.01764271    -0.07400
C1539       C  0.56574463  0.75900988  0.00292299     0.13500
C1540       C  0.58344206  0.76526797  0.47745512    -0.20900
C1541       C  0.61465881  0.76609016  0.47699082    -0.07400
C1542       C  0.64112541  0.75551811  0.50472844     0.13500
C1543       C  0.67496776  0.75790601  0.50549732    -0.24200
H1544       H  0.61080111  0.67441871  0.01639546     0.14800
H1545       H  0.56323842  0.77358782  0.45590842     0.14800
C1546       C  0.54266307  0.78179436  0.01407915    -0.24200
H1547       H  0.63765842  0.66468415  0.98210350     0.05000
H1548       H  0.68002430  0.78831116  0.49924352     0.08200
H1549       H  0.67835782  0.73666423  0.48797121     0.08200
H1550       H  0.55526283  0.79360273  0.03877258     0.08200
H1551       H  0.52282923  0.76214257  0.01400847     0.08200
H1552       H  0.52624194  0.75971954  0.48043262     0.05000
C1553       C  0.72003322  0.70458271  0.37260534    -0.20800
C1554       C  0.72257134  0.73483578  0.39520882    -0.07400
C1555       C  0.75340249  0.74779925  0.41534194     0.13500
C1556       C  0.78045230  0.73272150  0.41049073    -0.20900
C1557       C  0.77788472  0.70512842  0.38602965    -0.07400
C1558       C  0.74742613  0.68953760  0.36776731     0.13500
C1559       C  0.74360329  0.65903747  0.34200726    -0.24200
H1560       H  0.69637960  0.69480066  0.35700448     0.14800
H1561       H  0.80399415  0.74336241  0.42558055     0.14800
C1562       C  0.75796188  0.77781603  0.44182993    -0.24200
H1563       H  0.71803202  0.65091570  0.32928568     0.05000
H1564       H  0.75713550  0.63176926  0.35311888     0.08200
H1565       H  0.75289903  0.67084458  0.32381756     0.08200
H1566       H  0.74612778  0.76726867  0.45834365     0.08200
H1567       H  0.74771348  0.80695686  0.43150960     0.08200
H1568       H  0.78377917  0.78248858  0.45648931     0.05000
C1569       C  0.50542542  0.76502356  0.34751206    -0.20800
C1570       C  0.52119408  0.79509363  0.36898270    -0.07400
C1571       C  0.00757726  0.80912235  0.39080840     0.13500
C1572       C  0.98076358  0.78996370  0.39348401    -0.20900
C1573       C  0.96677155  0.75750692  0.37386120    -0.07400
C1574       C  0.97773901  0.74655429  0.34887479     0.13500
C1575       C  0.96073135  0.71578604  0.32398894    -0.24200
H1576       H  0.51527948  0.75478983  0.32993650     0.14800
H1577       H  0.97160187  0.79918995  0.41182777     0.14800
C1578       C  0.02252350  0.84304770  0.41316062    -0.24200
H1579       H  0.47260424  0.71230568  0.30618665     0.05000
H1580       H  0.93537796  0.72499180  0.31116560     0.08200
H1581       H  0.96166860  0.68651079  0.33563646     0.08200
H1582       H  0.52210805  0.87017104  0.39928473     0.08200
H1583       H  0.54788626  0.83620148  0.42916779     0.08200
H1584       H  0.00932702  0.84983217  0.42938901     0.05000
C1585       C  0.83243752  0.98108284  0.16463086    -0.20800
C1586       C  0.85488929  0.95880931  0.15649836    -0.07400
C1587       C  0.88247710  0.97798717  0.15522366     0.13500
C1588       C  0.88399501  0.01945248  0.15659962    -0.20900
C1589       C  0.85859978  0.04221247  0.15892702    -0.07400
C1590       C  0.83370416  0.02263570  0.16560653     0.13500
C1591       C  0.80673192  0.04487258  0.17084221    -0.24200
H1592       H  0.81186267  0.96632363  0.16676492     0.14800
H1593       H  0.90386314  0.03425781  0.15301026     0.14800
C1594       C  0.90993210  0.95525580  0.15133142    -0.24200
H1595       H  0.78975475  0.02457313  0.17601538     0.05000
H1596       H  0.79278533  0.06213649  0.14881275     0.08200
H1597       H  0.81667613  0.06499671  0.19187356     0.08200
H1598       H  0.90269193  0.94238646  0.12676236     0.08200
H1599       H  0.91798225  0.93133459  0.16979842     0.08200
H1600       H  0.93082932  0.97469416  0.15462442     0.05000
C1601       C  0.85644667  0.72771009  0.22384705    -0.20800
C1602       C  0.85096617  0.76902798  0.22041485    -0.07400
C1603       C  0.85124566  0.79076336  0.24772508     0.13500
C1604       C  0.85688544  0.77081280  0.27716723    -0.20900
C1605       C  0.86195618  0.72953754  0.28040966    -0.07400
C1606       C  0.86181929  0.70776353  0.25325653     0.13500
C1607       C  0.86606616  0.66340487  0.25462201    -0.24200
H1608       H  0.85571982  0.71046710  0.20304475     0.14800
H1609       H  0.85765901  0.78786881  0.29808497     0.14800
C1610       C  0.84619427  0.83498999  0.24647093    -0.24200
H1611       H  0.86299425  0.65093351  0.23055053     0.05000
H1612       H  0.84792162  0.64953200  0.26282420     0.08200
H1613       H  0.89055354  0.65529961  0.27147745     0.08200
H1614       H  0.82137509  0.84245074  0.23007032     0.08200
H1615       H  0.86377116  0.84960953  0.23788184     0.08200
H1616       H  0.84945710  0.84727754  0.27064810     0.05000
C1617       C  0.83437707  0.79101973  0.99477675    -0.20800
C1618       C  0.84188032  0.76675491  0.02234951    -0.07400
C1619       C  0.85979958  0.73163408  0.02470585     0.13500
C1620       C  0.87725166  0.71162445  0.50299467    -0.20900
C1621       C  0.87480475  0.73773841  0.47745925    -0.07400
C1622       C  0.86313394  0.77653498  0.47764909     0.13500
C1623       C  0.85993497  0.80591233  0.45101196    -0.24200
H1624       H  0.82146729  0.81859706  0.99358884     0.14800
H1625       H  0.88609665  0.68173549  0.50265645     0.14800
C1626       C  0.87022823  0.70575092  0.05453443    -0.24200
H1627       H  0.84986178  0.83465850  0.45506156     0.05000
H1628       H  0.84367927  0.79421353  0.42737006     0.08200
H1629       H  0.88391826  0.81170215  0.44997980     0.08200
H1630       H  0.84883488  0.69416325  0.05854467     0.08200
H1631       H  0.88521055  0.72307120  0.07592252     0.08200
H1632       H  0.88472106  0.67994970  0.05224010     0.05000
C1633       C  0.95706886  0.77580908  0.15163831    -0.20800
C1634       C  0.93819993  0.79833175  0.12502556    -0.07400
C1635       C  0.94880566  0.80421695  0.09894342     0.13500
C1636       C  0.47741507  0.78525928  0.09996290    -0.20900
C1637       C  0.49472892  0.75972709  0.12544394    -0.07400
C1638       C  0.98509624  0.75674612  0.15211680     0.13500
C1639       C  0.00467939  0.73418982  0.18231797    -0.24200
H1640       H  0.94900196  0.77170448  0.17165329     0.14800
H1641       H  0.48482340  0.78831252  0.07943345     0.14800
C1642       C  0.92943806  0.82854988  0.06978099    -0.24200
H1643       H  0.99564778  0.73889847  0.20223224     0.05000
H1644       H  0.52990665  0.74438302  0.19157200     0.08200
H1645       H  0.00373464  0.70190837  0.17761289     0.08200
H1646       H  0.92682127  0.85929822  0.07728191     0.08200
H1647       H  0.90537342  0.81525806  0.05789453     0.08200
H1648       H  0.94109622  0.82989608  0.05163488     0.05000
C1649       C  0.71114195  0.69131098  0.12974750    -0.20800
C1650       C  0.68246289  0.71343792  0.11715397    -0.07400
C1651       C  0.68254853  0.74956670  0.10090562     0.13500
C1652       C  0.71105510  0.76322047  0.09867850    -0.20900
C1653       C  0.74017912  0.74273779  0.11287985    -0.07400
C1654       C  0.74022883  0.70594691  0.12837707     0.13500
C1655       C  0.77094736  0.68315520  0.14482786    -0.24200
H1656       H  0.71101176  0.66331799  0.14165763     0.14800
H1657       H  0.71082301  0.79119891  0.08656933     0.14800
C1658       C  0.65248315  0.77394692  0.08507452    -0.24200
H1659       H  0.76679911  0.65564234  0.15642580     0.05000
H1660       H  0.78824732  0.70166028  0.16392046     0.08200
H1661       H  0.78160372  0.67466801  0.12679734     0.08200
H1662       H  0.64270040  0.78416297  0.10332828     0.08200
H1663       H  0.63448358  0.75604845  0.06631873     0.08200
H1664       H  0.65700677  0.80080506  0.07301545     0.05000
C1665       C  0.73886635  0.89055786  0.47148764    -0.20800
C1666       C  0.70745188  0.88530816  0.47064508    -0.07400
C1667       C  0.69186746  0.86300609  0.00233640     0.13500
C1668       C  0.71785048  0.86781091  0.03189390    -0.20900
C1669       C  0.74633373  0.88651468  0.03364059    -0.07400
C1670       C  0.74749330  0.90389186  0.00486554     0.13500
C1671       C  0.77569906  0.92833576  0.00519874    -0.24200
H1672       H  0.74275764  0.89224190  0.44884561     0.14800
H1673       H  0.71659200  0.85451936  0.05361851     0.14800
C1674       C  0.66324787  0.84001544  0.00296503    -0.24200
H1675       H  0.79655247  0.90484867  0.47397548     0.05000
H1676       H  0.79731569  0.90945051  0.01020273     0.08200
H1677       H  0.78058091  0.95181795  0.02383758     0.08200
H1678       H  0.65827058  0.85466967  0.49355549     0.08200
H1679       H  0.65511858  0.90839478  0.49004599     0.08200
H1680       H  0.66674330  0.82919106  0.02763066     0.05000
Fe1681     Fe  0.80594426  0.84368736  0.63259034     1.65800
Fe1682     Fe  0.86043031  0.85506698  0.59597756     1.73200
Fe1683     Fe  0.84857662  0.76441887  0.62227824     1.54400
O1684       O  0.85959788  0.76746205  0.67150454    -0.82200
O1685       O  0.86095841  0.81240418  0.56412688    -0.80500
O1686       O  0.82571165  0.81368731  0.67688676    -0.84700
O1687       O  0.77389717  0.79821325  0.61590281    -0.79500
O1688       O  0.89597874  0.77334164  0.62788704    -0.81300
O1689       O  0.81664240  0.87342988  0.56269802    -0.84100
C1690       C  0.77751888  0.76103696  0.61692932     0.96700
C1691       C  0.84509923  0.78452681  0.68790069     1.04100
O1692       O  0.83853945  0.82121424  0.61755181    -1.13000
O1693       O  0.86337016  0.90356876  0.62456143    -0.75500
O1694       O  0.83225639  0.89402528  0.65274282    -0.79000
O1695       O  0.80335985  0.74452795  0.61807784    -0.79700
C1696       C  0.85187263  0.91499590  0.64513583     0.95600
O1697       O  0.78205793  0.87207032  0.58805370    -0.77600
O1698       O  0.90651782  0.83709686  0.62549884    -0.82800
C1699       C  0.85028241  0.77785340  0.55646137     0.98200
C1700       C  0.91555145  0.80099844  0.62911985     1.04100
O1701       O  0.83792370  0.75770339  0.57312365    -0.78500
C1702       C  0.78844350  0.87793231  0.56259595     1.02400
Fe1703     Fe  0.65392837  0.83706011  0.87013359     1.65800
Fe1704     Fe  0.59730612  0.85204581  0.90286849     1.73200
Fe1705     Fe  0.60588464  0.76217422  0.87403557     1.54400
O1706       O  0.59519544  0.76911931  0.82558969    -0.82200
O1707       O  0.59124555  0.80713232  0.93104029    -0.80500
O1708       O  0.63632723  0.80643583  0.82531291    -0.84700
O1709       O  0.68382005  0.79082283  0.89128827    -0.79500
O1710       O  0.55848750  0.77535868  0.86785952    -0.81300
O1711       O  0.64012881  0.86401083  0.93918967    -0.84100
C1712       C  0.67914985  0.75425972  0.88619603     0.96700
C1713       C  0.61311244  0.78245356  0.81151323     1.04100
O1714       O  0.61888153  0.81739341  0.88185653    -1.13000
O1715       O  0.60068230  0.90234518  0.87801033    -0.75500
O1716       O  0.62861628  0.88682423  0.84749154    -0.79000
O1717       O  0.65122900  0.73940354  0.87807325    -0.79700
C1718       C  0.61255303  0.91136257  0.85704810     0.95600
O1719       O  0.67580750  0.86641664  0.91513104    -0.77600
O1720       O  0.55222702  0.84057972  0.86922083    -0.82800
C1721       C  0.60116840  0.77188446  0.93827090     0.98200
C1722       C  0.54082463  0.80579201  0.86551768     1.04100
O1723       O  0.61530530  0.75299073  0.92253289    -0.78500
C1724       C  0.66851140  0.86933198  0.94040565     1.02400
Fe1725     Fe  0.90440523  0.65774657  0.86860301     1.65800
Fe1726     Fe  0.85267571  0.64541346  0.90736430     1.73200
Fe1727     Fe  0.85779359  0.73413704  0.87457657     1.54400
O1728       O  0.90036876  0.75566000  0.87101629    -0.82200
O1729       O  0.80588923  0.65881025  0.87721099    -0.80500
O1730       O  0.93415568  0.70515340  0.88534464    -0.84700
O1731       O  0.88209381  0.68592190  0.82341966    -0.79500
O1732       O  0.87344552  0.74532604  0.92347873    -0.81300
O1733       O  0.85199665  0.59454509  0.88135503    -0.84100
C1734       C  0.85865229  0.71015326  0.81053582     0.96700
C1735       C  0.92781310  0.74057207  0.87608688     1.04100
O1736       O  0.87147057  0.67869113  0.88309963    -1.13000
O1737       O  0.89733075  0.63132332  0.94089042    -0.75500
O1738       O  0.93023594  0.63068789  0.91365730    -0.79000
O1739       O  0.84181777  0.72405070  0.82582789    -0.79700
C1740       C  0.92513226  0.62649169  0.93999380     0.95600
O1741       O  0.87950866  0.60661619  0.84984461    -0.77600
O1742       O  0.85188498  0.69152266  0.93678114    -0.82800
C1743       C  0.79505553  0.69390334  0.87564641     0.98200
C1744       C  0.86299102  0.72637085  0.94237366     1.04100
O1745       O  0.81229487  0.72374895  0.87578147    -0.78500
C1746       C  0.86304914  0.58367537  0.86011438     1.02400
Fe1747     Fe  0.55874788  0.64802859  0.63336819     1.65800
Fe1748     Fe  0.61150300  0.64044158  0.59525179     1.73200
Fe1749     Fe  0.60054256  0.72810857  0.62601753     1.54400
O1750       O  0.55525693  0.74614647  0.62567852    -0.82200
O1751       O  0.65708977  0.65510722  0.62623887    -0.80500
O1752       O  0.52588566  0.69211643  0.61277812    -0.84700
O1753       O  0.57652736  0.67951938  0.67761024    -0.79500
O1754       O  0.58687295  0.73824803  0.57692337    -0.81300
O1755       O  0.61265957  0.58887369  0.62081985    -0.84100
C1756       C  0.59843980  0.70544973  0.69020757     0.96700
C1757       C  0.52878140  0.72837153  0.62002022     1.04100
O1758       O  0.59072126  0.67181475  0.61894782    -1.13000
O1759       O  0.56767651  0.62630524  0.56117215    -0.75500
O1760       O  0.53661304  0.61718735  0.58969872    -0.79000
O1761       O  0.61478780  0.72039347  0.67498506    -0.79700
C1762       C  0.54089208  0.61701822  0.56279842     0.95600
O1763       O  0.58758908  0.59962437  0.65490649    -0.77600
O1764       O  0.61310756  0.68700730  0.56636253    -0.82800
C1765       C  0.66658019  0.69083089  0.62974740     0.98200
C1766       C  0.60051415  0.72114474  0.55987786     1.04100
O1767       O  0.64772051  0.71965432  0.62867085    -0.78500
C1768       C  0.60399181  0.57751940  0.64358172     1.02400
Fe1769     Fe  0.81417836  0.15632042  0.63381612     1.65800
Fe1770     Fe  0.86675413  0.13913389  0.59639505     1.73200
Fe1771     Fe  0.86038251  0.23064859  0.62441670     1.54400
O1772       O  0.81660784  0.25366485  0.62430332    -0.82200
O1773       O  0.91325082  0.15236703  0.62590306    -0.80500
O1774       O  0.78394424  0.20240513  0.61282310    -0.84700
O1775       O  0.83410570  0.18887334  0.67745108    -0.79500
O1776       O  0.84733900  0.23837798  0.57506978    -0.81300
O1777       O  0.86644217  0.09033471  0.62441164    -0.84100
C1778       C  0.85709471  0.21374310  0.68937061     0.96700
C1779       C  0.78946245  0.23843908  0.61991666     1.04100
O1780       O  0.84746764  0.17502158  0.61882226    -1.13000
O1781       O  0.82263754  0.12516366  0.56322768    -0.75500
O1782       O  0.78990290  0.12514588  0.59057875    -0.79000
O1783       O  0.87414984  0.22529708  0.67364347    -0.79700
C1784       C  0.79510315  0.12000410  0.56440135     0.95600
O1785       O  0.83998431  0.10653377  0.65630172    -0.77600
O1786       O  0.86878709  0.18230964  0.56512762    -0.82800
C1787       C  0.92427381  0.18730952  0.62844507     0.98200
C1788       C  0.85827589  0.21721157  0.55768336     1.04100
O1789       O  0.90682605  0.21766831  0.62703965    -0.78500
C1790       C  0.85572013  0.08180333  0.64640685     1.02400
Fe1791     Fe  0.66845813  0.14753492  0.86959218     1.65800
Fe1792     Fe  0.62168690  0.13317907  0.91263009     1.73200
Fe1793     Fe  0.63432276  0.22626812  0.89003143     1.54400
O1794       O  0.68266906  0.24017763  0.90336075    -0.82200
O1795       O  0.57781998  0.16303480  0.89829121    -0.80500
O1796       O  0.69516783  0.19726913  0.87252938    -0.84700
O1797       O  0.63738106  0.16874652  0.82515264    -0.79500
O1798       O  0.63927842  0.22799271  0.93830049    -0.81300
O1799       O  0.60368047  0.09690048  0.87286424    -0.84100
C1800       C  0.62828178  0.20491304  0.81906631     0.96700
C1801       C  0.70006256  0.22942984  0.88786558     1.04100
O1802       O  0.64080214  0.16939167  0.89050173    -1.13000
O1803       O  0.66470369  0.10110094  0.93248109    -0.75500
O1804       O  0.69993281  0.13033673  0.91519057    -0.79000
O1805       O  0.62815231  0.22893096  0.84126002    -0.79700
C1806       C  0.69327272  0.11233267  0.93718837     0.95600
O1807       O  0.64725303  0.09234910  0.86133600    -0.77600
O1808       O  0.63668902  0.16541251  0.95380396    -0.82800
C1809       C  0.56827611  0.19721230  0.88643857     0.98200
C1810       C  0.63912178  0.20217509  0.95916799     1.04100
O1811       O  0.58543885  0.22040363  0.87714127    -0.78500
C1812       C  0.62090285  0.07812474  0.86067503     1.02400
Fe1813     Fe  0.91563024  0.34577417  0.86847320     1.65800
Fe1814     Fe  0.86795616  0.35276196  0.91261809     1.73200
Fe1815     Fe  0.87748786  0.26370418  0.88128979     1.54400
O1816       O  0.86410771  0.26791809  0.83178034    -0.82200
O1817       O  0.86961162  0.30820257  0.94363537    -0.80500
O1818       O  0.89279000  0.31810730  0.82342277    -0.84700
O1819       O  0.94846415  0.30103503  0.88179891    -0.79500
O1820       O  0.83017209  0.27257159  0.87756253    -0.81300
O1821       O  0.91280181  0.36867104  0.94381209    -0.84100
C1822       C  0.94822967  0.26392101  0.88508146     0.96700
C1823       C  0.87446310  0.28799814  0.81343565     1.04100
O1824       O  0.88672775  0.32077021  0.88689282    -1.13000
O1825       O  0.86279578  0.40366656  0.88612209    -0.75500
O1826       O  0.88724493  0.39579447  0.85149829    -0.79000
O1827       O  0.92345562  0.24569334  0.88493736    -0.79700
C1828       C  0.87016276  0.41618561  0.86302935     0.95600
O1829       O  0.94278574  0.37192332  0.91339601    -0.77600
O1830       O  0.82182024  0.33660777  0.88484213    -0.82800
C1831       C  0.88060377  0.27348056  0.94935841     0.98200
C1832       C  0.81209071  0.30113360  0.87912319     1.04100
O1833       O  0.89030046  0.25396072  0.93032373    -0.78500
C1834       C  0.93949598  0.37452183  0.94081659     1.02400
Fe1835     Fe  0.56573449  0.33463479  0.63527196     1.65800
Fe1836     Fe  0.62167375  0.34528534  0.60095769     1.73200
Fe1837     Fe  0.61386871  0.25786073  0.63359282     1.54400
O1838       O  0.62562836  0.26894965  0.68160828    -0.82200
O1839       O  0.62729667  0.29779898  0.57424189    -0.80500
O1840       O  0.58410543  0.30630981  0.68119329    -0.84700
O1841       O  0.53578257  0.28761554  0.61683504    -0.79500
O1842       O  0.66099756  0.26922409  0.63788104    -0.81300
O1843       O  0.57856196  0.35707912  0.56480374    -0.84100
C1844       C  0.54129588  0.25162631  0.62478745     0.96700
C1845       C  0.60703473  0.28176283  0.69522647     1.04100
O1846       O  0.60041407  0.31290065  0.62354483    -1.13000
O1847       O  0.61867590  0.39759249  0.62418222    -0.75500
O1848       O  0.59064797  0.38550428  0.65524904    -0.79000
O1849       O  0.56914464  0.23647729  0.63205379    -0.79700
C1850       C  0.60673280  0.40874603  0.64469232     0.95600
O1851       O  0.54338534  0.36184766  0.58940878    -0.77600
O1852       O  0.66698125  0.33408438  0.63465347    -0.82800
C1853       C  0.61731165  0.26238814  0.56880976     0.98200
C1854       C  0.67853914  0.29919192  0.63921221     1.04100
O1855       O  0.60333732  0.24502558  0.58542287    -0.78500
C1856       C  0.55039946  0.36375921  0.56393665     1.02400
C1857       C  0.99747852  0.36274376  0.97263358    -0.20800
C1858       C  0.96844183  0.37996856  0.97126380    -0.07400
C1859       C  0.97049898  0.39862308  0.50070160     0.13500
C1860       C  0.99669854  0.39319714  0.53018658    -0.20900
C1861       C  0.52477025  0.37282632  0.53159491    -0.07400
C1862       C  0.52693143  0.35969348  0.50194582     0.13500
C1863       C  0.55565222  0.33719839  0.50061728    -0.24200
H1864       H  0.99897769  0.35044661  0.95070728     0.14800
H1865       H  0.99498946  0.40417802  0.55240912     0.14800
C1866       C  0.94158058  0.42149868  0.50097420    -0.24200
H1867       H  0.54946300  0.32555835  0.97620694     0.05000
H1868       H  0.56004086  0.31034122  0.51608357     0.08200
H1869       H  0.57717888  0.35639570  0.50868839     0.08200
H1870       H  0.91671302  0.39857735  0.99485198     0.08200
H1871       H  0.93199449  0.44271518  0.98236804     0.08200
H1872       H  0.94566888  0.43415599  0.52522156     0.05000
C1873       C  0.62431061  0.22475380  0.73297949    -0.20800
C1874       C  0.61089949  0.26319461  0.72705468    -0.07400
C1875       C  0.60011721  0.28032614  0.75028700     0.13500
C1876       C  0.60439531  0.25935648  0.77904663    -0.20900
C1877       C  0.61935568  0.22167618  0.78564692    -0.07400
C1878       C  0.62874554  0.20388351  0.76163832     0.13500
C1879       C  0.64429443  0.16344892  0.76591958    -0.24200
H1880       H  0.63152499  0.21054392  0.71485193     0.14800
H1881       H  0.59665236  0.27318010  0.79695876     0.14800
C1882       C  0.58521576  0.32108891  0.74574469    -0.24200
H1883       H  0.64985301  0.15450321  0.74449001     0.05000
H1884       H  0.62783289  0.14090245  0.76930421     0.08200
H1885       H  0.66730250  0.16346700  0.78707014     0.08200
H1886       H  0.56225033  0.32160002  0.72465939     0.08200
H1887       H  0.60195754  0.34294506  0.74198169     0.08200
H1888       H  0.57985427  0.33051390  0.76717699     0.05000
C1889       C  0.61081572  0.20113671  0.99664005    -0.20800
C1890       C  0.63709303  0.21514024  0.98967444    -0.07400
C1891       C  0.65801226  0.24300993  0.01004575     0.13500
C1892       C  0.65512387  0.24717503  0.54177567    -0.20900
C1893       C  0.62462631  0.24116979  0.54343085    -0.07400
C1894       C  0.60184372  0.21792451  0.51980829     0.13500
C1895       C  0.56893091  0.21050439  0.52047623    -0.24200
H1896       H  0.59482985  0.17960824  0.98070252     0.14800
H1897       H  0.67298586  0.26419265  0.56044665     0.14800
C1898       C  0.68807616  0.25685940  0.00558046    -0.24200
H1899       H  0.56079079  0.17959598  0.00923374     0.05000
H1900       H  0.55649470  0.23905406  0.52025920     0.08200
H1901       H  0.57104267  0.19353944  0.54259012     0.08200
H1902       H  0.69230099  0.24190464  0.98530033     0.08200
H1903       H  0.70916325  0.25043826  0.02793801     0.08200
H1904       H  0.70007259  0.27172280  0.51529607     0.05000
C1905       C  0.73022564  0.25480536  0.85539361    -0.20800
C1906       C  0.72603014  0.25467370  0.88532341    -0.07400
C1907       C  0.74815610  0.27515149  0.91174895     0.13500
C1908       C  0.77470562  0.29351775  0.90790360    -0.20900
C1909       C  0.77991336  0.29105236  0.87858080    -0.07400
C1910       C  0.75708226  0.27219313  0.85187143     0.13500
C1911       C  0.76149568  0.26946959  0.81995400    -0.24200
H1912       H  0.71297959  0.23968353  0.83486835     0.14800
H1913       H  0.79273063  0.30742655  0.92857810     0.14800
C1914       C  0.74517864  0.27535376  0.94443886    -0.24200
H1915       H  0.74095527  0.25454506  0.80126603     0.05000
H1916       H  0.78350402  0.25213919  0.82310381     0.08200
H1917       H  0.76372200  0.29963637  0.81105811     0.08200
H1918       H  0.74533599  0.24448437  0.95316239     0.08200
H1919       H  0.72246322  0.29026622  0.94271870     0.08200
H1920       H  0.76534452  0.29138051  0.96268639     0.05000
C1921       C  0.00709219  0.26412296  0.90183951    -0.20800
C1922       C  0.97852487  0.24263425  0.88843352    -0.07400
C1923       C  0.97969392  0.20479219  0.87506594     0.13500
C1924       C  0.00929127  0.19012351  0.87496290    -0.20900
C1925       C  0.53726376  0.21280209  0.88654244    -0.07400
C1926       C  0.53612635  0.25005239  0.90074002     0.13500
C1927       C  0.56554275  0.27545073  0.91564909    -0.24200
H1928       H  0.00655682  0.29280028  0.91257327     0.14800
H1929       H  0.01037442  0.16125618  0.86478481     0.14800
C1930       C  0.94982989  0.18057586  0.85964250    -0.24200
H1931       H  0.56023510  0.30279581  0.92664736     0.05000
H1932       H  0.57498378  0.28495940  0.89695600     0.08200
H1933       H  0.58416521  0.25867127  0.93510416     0.08200
H1934       H  0.93208870  0.19754347  0.83944885     0.08200
H1935       H  0.93924280  0.17310205  0.87792618     0.08200
H1936       H  0.95503751  0.15238549  0.84963991     0.05000
C1937       C  0.83714679  0.23231476  0.73323645    -0.20800
C1938       C  0.86245110  0.23259886  0.72158182    -0.07400
C1939       C  0.89061795  0.25428473  0.73938673     0.13500
C1940       C  0.89271726  0.27376539  0.76809816    -0.20900
C1941       C  0.86774765  0.27260387  0.78003581    -0.07400
C1942       C  0.83932227  0.25194944  0.76192847     0.13500
C1943       C  0.81083606  0.25093795  0.77223979    -0.24200
H1944       H  0.81520401  0.21686386  0.71965810     0.14800
H1945       H  0.91470456  0.28899003  0.78203403     0.14800
C1946       C  0.91917849  0.25665014  0.72913481    -0.24200
H1947       H  0.78967595  0.23692767  0.75369082     0.05000
H1948       H  0.80389424  0.28155307  0.77615264     0.08200
H1949       H  0.81677390  0.23327085  0.79474671     0.08200
H1950       H  0.91278710  0.27360595  0.70618237     0.08200
H1951       H  0.92745755  0.22638787  0.72613794     0.08200
H1952       H  0.93973406  0.27212992  0.74734631     0.05000
C1953       C  0.88500286  0.26430971  0.53452696    -0.20800
C1954       C  0.86272974  0.23370319  0.52933321    -0.07400
C1955       C  0.85158037  0.21339014  0.49949173     0.13500
C1956       C  0.85384010  0.22825332  0.97358040    -0.20900
C1957       C  0.87863998  0.25538542  0.97819613    -0.07400
C1958       C  0.89427755  0.27282301  0.00877410     0.13500
C1959       C  0.92123500  0.30189014  0.01447169    -0.24200
H1960       H  0.89460679  0.27837015  0.55805806     0.14800
H1961       H  0.84105575  0.21643938  0.94960452     0.14800
C1962       C  0.82763043  0.18019689  0.49305829    -0.24200
H1963       H  0.93145229  0.31166422  0.04009762     0.05000
H1964       H  0.91233251  0.32852230  0.99915727     0.08200
H1965       H  0.94078176  0.28794176  0.00836261     0.08200
H1966       H  0.80587572  0.19070740  0.49710226     0.08200
H1967       H  0.83830975  0.15475878  0.50933517     0.08200
H1968       H  0.82007222  0.16935610  0.46776589     0.05000
C1969       C  0.97580578  0.22089330  0.65496737    -0.20800
C1970       C  0.95776439  0.19462444  0.63107439    -0.07400
C1971       C  0.96925788  0.18337408  0.60645981     0.13500
C1972       C  0.49786937  0.20031342  0.60580713    -0.20900
C1973       C  0.51477772  0.22854563  0.62879859    -0.07400
C1974       C  0.00390232  0.23791562  0.65409299     0.13500
C1975       C  0.02159619  0.26654738  0.68029377    -0.24200
H1976       H  0.96690161  0.22969767  0.67362452     0.14800
H1977       H  0.50598974  0.19317527  0.58627959     0.14800
C1978       C  0.95034522  0.15587044  0.57968846    -0.24200
H1979       H  0.00986901  0.27048025  0.69821350     0.05000
H1980       H  0.02261149  0.29601109  0.66966559     0.08200
H1981       H  0.54611621  0.25474864  0.69349616     0.08200
H1982       H  0.92647591  0.16905267  0.56587750     0.08200
H1983       H  0.94723584  0.12695640  0.59004987     0.08200
H1984       H  0.96264563  0.15037733  0.56244989     0.05000
C1985       C  0.75687413  0.24588416  0.65358674    -0.20800
C1986       C  0.76479765  0.26072526  0.62793926    -0.07400
C1987       C  0.74778402  0.29364506  0.61021869     0.13500
C1988       C  0.72144382  0.30884204  0.61690026    -0.20900
C1989       C  0.71180087  0.29160911  0.64081807    -0.07400
C1990       C  0.73085330  0.26100457  0.66044178     0.13500
C1991       C  0.72377272  0.24390883  0.68849904    -0.24200
H1992       H  0.77049881  0.22113042  0.66765095     0.14800
H1993       H  0.70683747  0.33218411  0.60166496     0.14800
C1994       C  0.75618632  0.31105253  0.58318502    -0.24200
H1995       H  0.74233097  0.22197565  0.70232514     0.05000
H1996       H  0.70038264  0.22844855  0.67990080     0.08200
H1997       H  0.72336140  0.26799706  0.70532278     0.08200
H1998       H  0.75414526  0.28805657  0.56472122     0.08200
H1999       H  0.78119996  0.32220563  0.59294517     0.08200
H2000       H  0.73998556  0.33608307  0.57115893     0.05000
C2001       C  0.77692602  0.09900935  0.50641011    -0.20800
C2002       C  0.76849046  0.10962388  0.53306209    -0.07400
C2003       C  0.73542460  0.11487770  0.52752922     0.13500
C2004       C  0.71248406  0.11113498  0.49590126    -0.20900
C2005       C  0.71859704  0.10756744  0.97028803    -0.07400
C2006       C  0.75124612  0.09996399  0.97579076     0.13500
C2007       C  0.76213282  0.08984472  0.94839070    -0.24200
H2008       H  0.79918230  0.09624381  0.01110879     0.14800
H2009       H  0.68743668  0.11655386  0.49183124     0.14800
C2010       C  0.72387941  0.12669120  0.55413725    -0.24200
H2011       H  0.78812759  0.08234139  0.95728735     0.05000
H2012       H  0.75826127  0.11547049  0.93170766     0.08200
H2013       H  0.74858532  0.06390652  0.93495675     0.08200
H2014       H  0.73419307  0.15574431  0.56426974     0.08200
H2015       H  0.73098518  0.10378554  0.57347860     0.08200
H2016       H  0.69732509  0.12981758  0.54521039     0.05000
C2017       C  0.63663761  0.47234905  0.65324754    -0.20800
C2018       C  0.61011418  0.45130511  0.65450813    -0.07400
C2019       C  0.58515693  0.47279712  0.65984187     0.13500
C2020       C  0.58575804  0.51448943  0.65992120    -0.20900
C2021       C  0.61027052  0.53541600  0.65433199    -0.07400
C2022       C  0.63714055  0.51398739  0.65323282     0.13500
C2023       C  0.66634069  0.53465848  0.65171674    -0.24200
H2024       H  0.65637391  0.45613040  0.65039050     0.14800
H2025       H  0.56543285  0.53074362  0.66145350     0.14800
C2026       C  0.55648919  0.45250027  0.66292898    -0.24200
H2027       H  0.68612696  0.51338704  0.65424540     0.05000
H2028       H  0.67528235  0.55634333  0.67176581     0.08200
H2029       H  0.66061951  0.55003710  0.62818703     0.08200
H2030       H  0.56448790  0.43228867  0.68418673     0.08200
H2031       H  0.54346058  0.43553587  0.64059303     0.08200
H2032       H  0.53925764  0.47402525  0.66650156     0.05000
C2033       C  0.83468821  0.51963703  0.85539629    -0.20800
C2034       C  0.85862947  0.54147123  0.84950672    -0.07400
C2035       C  0.88106669  0.52075781  0.83948139     0.13500
C2036       C  0.88184495  0.47913186  0.84059602    -0.20900
C2037       C  0.86114799  0.45764785  0.85172561    -0.07400
C2038       C  0.83562448  0.47811321  0.85673014     0.13500
C2039       C  0.80968008  0.45681777  0.86435610    -0.24200
H2040       H  0.81641404  0.53519400  0.86143572     0.14800
H2041       H  0.90069377  0.46356424  0.83553990     0.14800
C2042       C  0.90579416  0.54174883  0.82973943    -0.24200
H2043       H  0.78984233  0.47722522  0.86348437     0.05000
H2044       H  0.81939020  0.44398995  0.88908655     0.08200
H2045       H  0.79928011  0.43309607  0.84631259     0.08200
H2046       H  0.92238370  0.55866966  0.85050817     0.08200
H2047       H  0.89363352  0.56199370  0.80907386     0.08200
H2048       H  0.92060925  0.52064719  0.82192480     0.05000
C2049       C  0.95650710  0.60499283  0.49733065    -0.20800
C2050       C  0.95224500  0.61761985  0.97171438    -0.07400
C2051       C  0.98512318  0.62424107  0.97708293     0.13500
C2052       C  0.52012055  0.60915835  0.50256731    -0.17700
C2053       C  0.51366908  0.60838035  0.53139733    -0.07400
C2054       C  0.98101681  0.60554759  0.52826605     0.13500
C2055       C  0.97142853  0.60412943  0.55744962    -0.24200
H2056       H  0.93186119  0.60315966  0.49584918     0.14800
H2057       H  0.53296607  0.62629897  0.01293721     0.14800
C2058       C  0.99607367  0.63681233  0.95022759    -0.24200
H2059       H  0.94511697  0.60044194  0.55055682     0.05000
H2060       H  0.97803445  0.63223167  0.57117467     0.08200
H2061       H  0.98342516  0.57868858  0.57318204     0.08200
H2062       H  0.98450988  0.66536826  0.93968579     0.08200
H2063       H  0.98992034  0.61369571  0.93122100     0.08200
H2064       H  0.52238667  0.63957808  0.95938028     0.05000
C2065       C  0.63647383  0.01446962  0.84268135    -0.20800
C2066       C  0.61265284  0.03681208  0.84872864    -0.07400
C2067       C  0.58436266  0.01725233  0.84779229     0.13500
C2068       C  0.58337670  0.97567554  0.84655701    -0.20900
C2069       C  0.60970055  0.95322021  0.84604721    -0.07400
C2070       C  0.63562567  0.97302716  0.84171280     0.13500
C2071       C  0.66396002  0.95111959  0.83894692    -0.24200
H2072       H  0.65750734  0.02914273  0.84157503     0.14800
H2073       H  0.56285512  0.96050477  0.84845222     0.14800
C2074       C  0.55549291  0.03934963  0.84902649    -0.24200
H2075       H  0.68192976  0.97161739  0.83581028     0.05000
H2076       H  0.65569956  0.93134631  0.81755324     0.08200
H2077       H  0.67630655  0.93350592  0.86124895     0.08200
H2078       H  0.54804733  0.06257204  0.82992336     0.08200
H2079       H  0.56098862  0.05290522  0.87317184     0.08200
H2080       H  0.53472427  0.01935316  0.84475879     0.05000
C2081       C  0.63594270  0.75367841  0.77324046    -0.20800
C2082       C  0.60851804  0.76563187  0.77915994    -0.07400
C2083       C  0.57778787  0.75583742  0.75621979     0.13500
C2084       C  0.57548591  0.73451123  0.72826533    -0.20900
C2085       C  0.60294174  0.72248765  0.72243155    -0.07400
C2086       C  0.63358973  0.73224493  0.74532874     0.13500
C2087       C  0.66399169  0.71910614  0.74104971    -0.24200
H2088       H  0.65947357  0.76005888  0.79111677     0.14800
H2089       H  0.55198857  0.72820534  0.71032402     0.14800
C2090       C  0.54722170  0.76876370  0.76038575    -0.24200
H2091       H  0.68568465  0.72679074  0.76233636     0.05000
H2092       H  0.66617140  0.73394288  0.71971287     0.08200
H2093       H  0.66380041  0.68649758  0.73785298     0.08200
H2094       H  0.54749334  0.80128455  0.76408194     0.08200
H2095       H  0.54459070  0.75337010  0.78133392     0.08200
H2096       H  0.52564275  0.76164509  0.73876921     0.05000
C2097       C  0.63564430  0.74309805  0.53225360    -0.20800
C2098       C  0.60436680  0.74120764  0.53245451    -0.07400
C2099       C  0.57793948  0.75272911  0.50498002     0.13500
C2100       C  0.57291136  0.77338384  0.97686136    -0.20900
C2101       C  0.59418309  0.75320079  0.96515572    -0.07400
C2102       C  0.60712975  0.71631023  0.97902150     0.13500
C2103       C  0.62938156  0.69220363  0.96763044    -0.24200
H2104       H  0.65580426  0.73397887  0.55359261     0.14800
H2105       H  0.56192521  0.80106453  0.96589391     0.14800
C2106       C  0.54409224  0.75014057  0.50420790    -0.24200
H2107       H  0.69263212  0.75076184  0.52989201     0.05000
H2108       H  0.65102425  0.70974479  0.96997218     0.08200
H2109       H  0.61673682  0.68319863  0.94207533     0.08200
H2110       H  0.54131544  0.76954075  0.52316585     0.08200
H2111       H  0.53867885  0.71910147  0.50865612     0.08200
H2112       H  0.53186670  0.80742529  0.99797440     0.05000
C2113       C  0.70561501  0.70892499  0.85910545    -0.20800
C2114       C  0.70727947  0.72990190  0.88710462    -0.07400
C2115       C  0.73753518  0.73427700  0.91238714     0.13500
C2116       C  0.76524930  0.71995180  0.90823435    -0.20900
C2117       C  0.76391135  0.70168192  0.87940389    -0.07400
C2118       C  0.73367776  0.69507422  0.85486206     0.13500
C2119       C  0.73125397  0.67559481  0.82364060    -0.24200
H2120       H  0.68256418  0.70600375  0.83946012     0.14800
H2121       H  0.78847500  0.72444961  0.92730165     0.14800
C2122       C  0.74084856  0.75453936  0.94370729    -0.24200
H2123       H  0.70589070  0.67284673  0.80684436     0.05000
H2124       H  0.74196172  0.64544543  0.82867819     0.08200
H2125       H  0.74434979  0.69340447  0.81147307     0.08200
H2126       H  0.72511629  0.73989118  0.95466385     0.08200
H2127       H  0.73419952  0.78629163  0.93944919     0.08200
H2128       H  0.76591623  0.75304989  0.96151012     0.05000
C2129       C  0.49158612  0.76647109  0.84255841    -0.20800
C2130       C  0.50700089  0.79845340  0.86191499    -0.07400
C2131       C  0.99292200  0.81566952  0.88243571     0.13500
C2132       C  0.96580287  0.79773186  0.88566985    -0.20900
C2133       C  0.95263872  0.76314293  0.86862179    -0.07400
C2134       C  0.96478500  0.74860493  0.84542558     0.13500
C2135       C  0.94979629  0.71396818  0.82393748    -0.24200
H2136       H  0.50181969  0.75384050  0.82604236     0.14800
H2137       H  0.95604948  0.80935285  0.90288538     0.14800
C2138       C  0.00762091  0.85109723  0.90298685    -0.24200
H2139       H  0.46218162  0.70704110  0.80742047     0.05000
H2140       H  0.92463099  0.72150630  0.80881845     0.08200
H2141       H  0.95065958  0.68708546  0.83860532     0.08200
H2142       H  0.50809165  0.87624907  0.88800082     0.08200
H2143       H  0.53299249  0.84371633  0.91988544     0.08200
H2144       H  0.99399063  0.86001113  0.91834699     0.05000
C2145       C  0.83459689  0.97774077  0.66327581    -0.20800
C2146       C  0.85893703  0.95625957  0.65753411    -0.07400
C2147       C  0.88645456  0.97692000  0.65755475     0.13500
C2148       C  0.88635722  0.01850989  0.65784987    -0.20900
C2149       C  0.85968385  0.04013379  0.65837082    -0.07400
C2150       C  0.83449019  0.01942083  0.66354894     0.13500
C2151       C  0.80602675  0.04065354  0.66657207    -0.24200
H2152       H  0.81392606  0.96212051  0.66434659     0.14800
H2153       H  0.90629799  0.03425743  0.65520989     0.14800
C2154       C  0.91573758  0.95564880  0.65640634    -0.24200
H2155       H  0.78872405  0.01970860  0.67045121     0.05000
H2156       H  0.79301485  0.05768348  0.64411246     0.08200
H2157       H  0.81428360  0.06097064  0.68762230     0.08200
H2158       H  0.91068923  0.94204574  0.63236387     0.08200
H2159       H  0.92356050  0.93250510  0.67555477     0.08200
H2160       H  0.93612279  0.97626313  0.66065180     0.05000
C2161       C  0.85705514  0.72616128  0.72485853    -0.20800
C2162       C  0.84899688  0.76676935  0.71998322    -0.07400
C2163       C  0.84241801  0.78755703  0.74453242     0.13500
C2164       C  0.84459603  0.76748990  0.77300628    -0.20900
C2165       C  0.85317007  0.72714918  0.77800805    -0.07400
C2166       C  0.85926210  0.70616885  0.75339297     0.13500
C2167       C  0.86722615  0.66255143  0.75653084    -0.24200
H2168       H  0.86122550  0.70953215  0.70592216     0.14800
H2169       H  0.84041023  0.78394035  0.79203025     0.14800
C2170       C  0.83395209  0.83104119  0.74161119    -0.24200
H2171       H  0.86863826  0.65032737  0.73389470     0.05000
H2172       H  0.84834049  0.64608724  0.76188794     0.08200
H2173       H  0.89087814  0.65730716  0.77610975     0.08200
H2174       H  0.81030676  0.83597462  0.72192071     0.08200
H2175       H  0.85278325  0.84810698  0.73664869     0.08200
H2176       H  0.83211615  0.84285859  0.76419178     0.05000
C2177       C  0.85334780  0.78769632  0.50288682    -0.20800
C2178       C  0.85502417  0.76129329  0.52800382    -0.07400
C2179       C  0.86754433  0.72286572  0.52828730     0.13500
C2180       C  0.86899854  0.72114831  0.99899896    -0.20900
C2181       C  0.86076495  0.74482045  0.97111670    -0.07400
C2182       C  0.84344215  0.78033879  0.96894699     0.13500
C2183       C  0.83331199  0.80608234  0.93906671    -0.24200
H2184       H  0.84464467  0.81757087  0.50323854     0.14800
H2185       H  0.88191504  0.69356649  0.00016644     0.14800
C2186       C  0.87170470  0.69401728  0.55550037    -0.24200
H2187       H  0.81948607  0.83247543  0.94150481     0.05000
H2188       H  0.81782596  0.78902391  0.91776214     0.08200
H2189       H  0.85485858  0.81661527  0.93477944     0.08200
H2190       H  0.84797557  0.68715971  0.55675890     0.08200
H2191       H  0.88767286  0.70687317  0.57882680     0.08200
H2192       H  0.88266418  0.66566926  0.55198746     0.05000
C2193       C  0.95827075  0.74984391  0.64402332    -0.20800
C2194       C  0.94872861  0.78827170  0.63209803    -0.07400
C2195       C  0.96789589  0.80879083  0.61782472     0.13500
C2196       C  0.49339006  0.78862487  0.61431522    -0.20900
C2197       C  0.50103516  0.74907426  0.62434704    -0.07400
C2198       C  0.98398933  0.73015653  0.63971595     0.13500
C2199       C  0.99053382  0.68777875  0.65137897    -0.24200
H2200       H  0.94418352  0.73389068  0.65531751     0.14800
H2201       H  0.50763881  0.80375377  0.60276771     0.14800
C2202       C  0.95913381  0.84987571  0.60410166    -0.24200
H2203       H  0.97474625  0.67813051  0.66427460     0.05000
H2204       H  0.51462603  0.68440425  0.66908563     0.08200
H2205       H  0.98591461  0.66754482  0.63052155     0.08200
H2206       H  0.95898739  0.87047608  0.62349424     0.08200
H2207       H  0.93506379  0.84967545  0.58442913     0.08200
H2208       H  0.97655236  0.86126885  0.59375396     0.05000
C2209       C  0.70748560  0.69065254  0.60408243    -0.20800
C2210       C  0.69914780  0.70077432  0.63079939    -0.07400
C2211       C  0.71901942  0.72689223  0.65429434     0.13500
C2212       C  0.74495274  0.74484547  0.64923234    -0.20900
C2213       C  0.75189464  0.73706263  0.62144277    -0.07400
C2214       C  0.73398971  0.70823954  0.59935339     0.13500
C2215       C  0.74225047  0.69711470  0.57053551    -0.24200
H2216       H  0.69220635  0.67063729  0.58595475     0.14800
H2217       H  0.75961003  0.76589211  0.66683454     0.14800
C2218       C  0.71281032  0.73602560  0.68466577    -0.24200
H2219       H  0.72460717  0.67603152  0.55446049     0.05000
H2220       H  0.76635606  0.68293582  0.57893639     0.08200
H2221       H  0.74277003  0.72390140  0.55625775     0.08200
H2222       H  0.71254851  0.70805934  0.69775367     0.08200
H2223       H  0.68942338  0.75150470  0.67856507     0.08200
H2224       H  0.73167700  0.75538758  0.70125409     0.05000
C2225       C  0.72156072  0.89887492  0.97509260    -0.20800
C2226       C  0.69395468  0.87768561  0.97302309    -0.07400
C2227       C  0.70289332  0.88500823  0.50087006     0.13500
C2228       C  0.72970819  0.88554805  0.53013117    -0.20900
C2229       C  0.76133498  0.88686645  0.53092688    -0.07400
C2230       C  0.76564645  0.89191255  0.50089918     0.13500
C2231       C  0.79822234  0.89838138  0.49907246    -0.24200
H2232       H  0.72310441  0.91111778  0.95314699     0.14800
H2233       H  0.72579308  0.88305317  0.55272007     0.14800
C2234       C  0.67014698  0.88308180  0.50333675    -0.24200
H2235       H  0.77094449  0.94306622  0.98149155     0.05000
H2236       H  0.81325359  0.87143913  0.50712284     0.08200
H2237       H  0.81007239  0.92400475  0.51435128     0.08200
H2238       H  0.65928079  0.81369449  0.98706110     0.08200
H2239       H  0.64152542  0.85921343  0.99504946     0.08200
H2240       H  0.67155856  0.88486736  0.52879225     0.05000
loop_ 
_geom_bond_atom_site_label_1 
_geom_bond_atom_site_label_2 
_geom_bond_distance 
_geom_bond_site_symmetry_2 
_ccdc_geom_bond_type 
Fe1          O17   2.114       .  S
Fe1           O7   2.032       .  S
Fe1          O14   2.074       .  S
Fe1           O6   2.102       .  S
Fe1          O12   1.965       .  S
Fe2           O5   2.019       .  S
Fe2           O9   2.053       .  S
Fe2          O13   2.041       .  S
Fe2          O18   2.061       .  S
Fe2          O12   1.976       .  S
Fe3          O21   2.062       .  S
Fe3           O8   2.083       .  S
Fe3          O15   2.095       .  S
Fe3           O4   2.056       .  S
Fe3          O12   1.970       .  S
O4           C11   1.273       .  A
O5           C19   1.258       .  A
O6           C11   1.281       .  A
O7           C10   1.262       .  A
O8           C20   1.275       .  A
O9           C22   1.267       .  A
C10          O15   1.270       .  A
C10         C533   1.489       .  S
C11         C482   1.499       .  S
O13          C16   1.260       .  A
O14          C16   1.266       .  A
C16         C466   1.484       .  S
O17          C22   1.282       .  A
O18          C20   1.271       .  A
C19          O21   1.268       .  A
C19         C498   1.460       .  S
C20         C514   1.479       .  S
C22         C549   1.505       .  S
Fe23         O39   2.128       .  S
Fe23         O29   2.036       .  S
Fe23         O36   2.071       .  S
Fe23         O28   2.129       .  S
Fe23         O34   1.954       .  S
Fe24         O27   2.045       .  S
Fe24         O31   2.043       .  S
Fe24         O35   2.054       .  S
Fe24         O40   2.054       .  S
Fe24         O34   1.967       .  S
Fe25         O43   2.060       .  S
Fe25         O30   2.089       .  S
Fe25         O37   2.094       .  S
Fe25         O26   2.041       .  S
Fe25         O34   1.956       .  S
O26          C33   1.270       .  A
O27          C41   1.262       .  A
O28          C33   1.289       .  A
O29          C32   1.259       .  A
O30          C42   1.276       .  A
O31          C44   1.267       .  A
C32          O37   1.269       .  A
C32         C434   1.484       .  S
C33         C402   1.505       .  S
O35          C38   1.264       .  A
O36          C38   1.265       .  A
C38         C389   1.492       .  S
O39          C44   1.287       .  A
O40          C42   1.270       .  A
C41          O43   1.269       .  A
C41         C421   1.458       .  S
C42         C450   1.478       .  S
C44         C546   1.511       .  S
Fe45         O61   2.068       .  S
Fe45         O51   2.109       .  S
Fe45         O58   2.110       .  S
Fe45         O50   2.046       .  S
Fe45         O56   1.952       .  S
Fe46         O49   2.072       .  S
Fe46         O53   2.062       .  S
Fe46         O57   2.051       .  S
Fe46         O62   2.040       .  S
Fe46         O56   1.960       .  S
Fe47         O65   2.081       .  S
Fe47         O52   2.066       .  S
Fe47         O59   2.052       .  S
Fe47         O48   2.088       .  S
Fe47         O56   1.959       .  S
O48          C55   1.268       .  A
O49          C63   1.272       .  A
O50          C55   1.262       .  A
O51          C54   1.284       .  A
O52          C64   1.273       .  A
O53          C66   1.268       .  A
C54          O59   1.275       .  A
C54         C485   1.492       .  S
C55         C453   1.481       .  S
O57          C60   1.270       .  A
O58          C60   1.280       .  A
C60         C370   1.509       .  S
O61          C66   1.266       .  A
O62          C64   1.266       .  A
C63          O65   1.273       .  A
C63         C437   1.487       .  S
C64         C501   1.467       .  S
C66         C354   1.495       .  S
Fe67         O83   2.083       .  S
Fe67         O73   2.095       .  S
Fe67         O80   2.089       .  S
Fe67         O72   2.043       .  S
Fe67         O78   1.951       .  S
Fe68         O71   2.083       .  S
Fe68         O75   2.056       .  S
Fe68         O79   2.090       .  S
Fe68         O84   2.024       .  S
Fe68         O78   1.961       .  S
Fe69         O87   2.066       .  S
Fe69         O74   2.074       .  S
Fe69         O81   2.077       .  S
Fe69         O70   2.088       .  S
Fe69         O78   1.951       .  S
O70          C77   1.268       .  A
O71          C85   1.271       .  A
O72          C77   1.258       .  A
O73          C76   1.287       .  A
O74          C86   1.274       .  A
O75          C88   1.262       .  A
C76          O81   1.277       .  A
C76         C405   1.491       .  S
C77         C517   1.491   1_455  S
O79          C82   1.276       .  A
O80          C82   1.277       .  A
C82         C373   1.502       .  S
O83          C88   1.269       .  A
O84          C86   1.264       .  A
C85          O87   1.270       .  A
C85         C530   1.489       .  S
C86         C418   1.469       .  S
C88         C341   1.499       .  S
Fe89        O105   2.063       .  S
Fe89         O95   2.115       .  S
Fe89        O102   2.114       .  S
Fe89         O94   2.041       .  S
Fe89        O100   1.951       .  S
Fe90         O93   2.072       .  S
Fe90         O97   2.065       .  S
Fe90        O101   2.050       .  S
Fe90        O106   2.037       .  S
Fe90        O100   1.959       .  S
Fe91        O109   2.086       .  S
Fe91         O96   2.061       .  S
Fe91        O103   2.045       .  S
Fe91         O92   2.104       .  S
Fe91        O100   1.959       .  S
O92          C99   1.270       .  A
O93         C107   1.272       .  A
O94          C99   1.260       .  A
O95          C98   1.286       .  A
O96         C108   1.273       .  A
O97         C110   1.270       .  A
C98         O103   1.271       .  A
C98         C258   1.498       .  S
C99         C306   1.483       .  S
O101        C104   1.268       .  A
O102        C104   1.279       .  A
C104        C322   1.511       .  S
O105        C110   1.266       .  A
O106        C108   1.265       .  A
C107        O109   1.273       .  A
C107        C290   1.488       .  S
C108        C274   1.450       .  S
C110        C469   1.488       .  S
Fe111       O127   2.074       .  S
Fe111       O117   2.069       .  S
Fe111       O124   2.071       .  S
Fe111       O116   2.048       .  S
Fe111       O122   1.946       .  S
Fe112       O115   2.078       .  S
Fe112       O119   2.065       .  S
Fe112       O123   2.093       .  S
Fe112       O128   2.033       .  S
Fe112       O122   1.955       .  S
Fe113       O131   2.060       .  S
Fe113       O118   2.081       .  S
Fe113       O125   2.096       .  S
Fe113       O114   2.080       .  S
Fe113       O122   1.943       .  S
O114        C121   1.266       .  A
O115        C129   1.273       .  A
O116        C121   1.260       .  A
O117        C120   1.282       .  A
O118        C130   1.274       .  A
O119        C132   1.263       .  A
C120        O125   1.282       .  A
C120        C197   1.498       .  S
C121        C226   1.480       .  S
O123        C126   1.278       .  A
O124        C126   1.276       .  A
C126        C325   1.494       .  S
O127        C132   1.267       .  A
O128        C130   1.263       .  A
C129        O131   1.271       .  A
C129        C245   1.482       .  S
C130        C210   1.464       .  S
C132        C386   1.499       .  S
Fe133       O149   2.111       .  S
Fe133       O139   2.038       .  S
Fe133       O146   2.077       .  S
Fe133       O138   2.105       .  S
Fe133       O144   1.954       .  S
Fe134       O137   2.029       .  S
Fe134       O141   2.042       .  S
Fe134       O145   2.047       .  S
Fe134       O150   2.055       .  S
Fe134       O144   1.958       .  S
Fe135       O153   2.063       .  S
Fe135       O140   2.085       .  S
Fe135       O147   2.090       .  S
Fe135       O136   2.050       .  S
Fe135       O144   1.960       .  S
O136        C143   1.270       .  A
O137        C151   1.261       .  A
O138        C143   1.282       .  A
O139        C142   1.264       .  A
O140        C152   1.274       .  A
O141        C154   1.265       .  A
C142        O147   1.270       .  A
C142        C242   1.489       .  S
C143        C261   1.493       .  S
O145        C148   1.262       .  A
O146        C148   1.269       .  A
C148        C357   1.489       .  S
O149        C154   1.281       .  A
O150        C152   1.270       .  A
C151        O153   1.269       .  A
C151        C277   1.453       .  S
C152        C229   1.471       .  S
C154        C178   1.494       .  S
Fe155       O171   2.123       .  S
Fe155       O161   2.048       .  S
Fe155       O168   2.064       .  S
Fe155       O160   2.127       .  S
Fe155       O166   1.951       .  S
Fe156       O159   2.053       .  S
Fe156       O163   2.049       .  S
Fe156       O167   2.068       .  S
Fe156       O172   2.067       .  S
Fe156       O166   1.956       .  S
Fe157       O175   2.057       .  S
Fe157       O162   2.088       .  S
Fe157       O169   2.116       .  S
Fe157       O158   2.033       .  S
Fe157       O166   1.952       .  S
O158        C165   1.270       .  A
O159        C173   1.269       .  A
O160        C165   1.285       .  A
O161        C164   1.261       .  A
O162        C174   1.273       .  A
O163        C176   1.267       .  A
C164        O169   1.273       .  A
C164        C293   1.490       .  S
C165        C194   1.498       .  S
O167        C170   1.269       .  A
O168        C170   1.266       .  A
C170        C338   1.492       .  S
O171        C176   1.283       .  A
O172        C174   1.271       .  A
C173        O175   1.273       .  A
C173        C213   1.471       .  S
C174        C309   1.487       .  S
C176        C181   1.508       .  S
C177        C178   1.401       .  A
C177       C1862   1.406       .  A
C177        H184   1.084       .  S
C178        C739   1.421       .  A
C179        C180   1.415       .  A
C179        C738   1.423   1_554  A
C179        C186   1.508       .  S
C180       C1301   1.406       .  A
C180        H185   1.084       .  S
C181        C182   1.428       .  A
C181       C1300   1.406   1_455  A
C182       C1857   1.409   1_454  A
C182        C183   1.511       .  S
C183        H188   1.110       .  S
C183        H189   1.110       .  S
C183        H747   1.110   1_554  S
C186        H192   1.111       .  S
C186        H750   1.107   1_554  S
C186        H751   1.110   1_554  S
H187        C743   1.109       .  S
H190        C746   1.107       .  S
H191        C746   1.110       .  S
C193        C194   1.410       .  A
C193        C198   1.401       .  A
C193        H200   1.083       .  S
C194        C195   1.414       .  A
C195        C196   1.412       .  A
C195        C202   1.506       .  S
C196        C197   1.414       .  A
C196        H201   1.083       .  S
C197        C198   1.417       .  A
C198        C199   1.510       .  S
C199        H203   1.111       .  S
C199        H204   1.110       .  S
C199        H205   1.111       .  S
C202        H206   1.109       .  S
C202        H207   1.111       .  S
C202        H208   1.111       .  S
C209        C210   1.407       .  A
C209        C774   1.400       .  A
C209        H216   1.085       .  S
C210        C211   1.405       .  A
C211        C772   1.400       .  A
C211        C218   1.507       .  S
C212        C213   1.412       .  A
C212        C771   1.396       .  A
C212        H217   1.085       .  S
C213        C214   1.409       .  A
C214        C769   1.397   1_554  A
C214        C215   1.508       .  S
C215        H220   1.111       .  S
C215        H221   1.110       .  S
C215        H779   1.111       .  S
C218        H222   1.109       .  S
C218        H223   1.111       .  S
C218        H784   1.110       .  S
H219        C775   1.111       .  S
H224        C778   1.110       .  S
C225        C226   1.410       .  A
C225        C230   1.402       .  A
C225        H232   1.085       .  S
C226        C227   1.411       .  A
C227        C228   1.407       .  A
C227        C234   1.506       .  S
C228        C229   1.407       .  A
C228        H233   1.085       .  S
C229        C230   1.405       .  A
C230        C231   1.505       .  S
C231        H235   1.111       .  S
C231        H236   1.109       .  S
C231        H237   1.110       .  S
C234        H238   1.111       .  S
C234        H239   1.110       .  S
C234        H240   1.111       .  S
C241        C242   1.402       .  A
C241       C1366   1.396       .  A
C241        H248   1.084       .  S
C242        C243   1.420       .  A
C243        C244   1.413       .  A
C243        C250   1.506       .  S
C244       C1365   1.404       .  A
C244        H249   1.084       .  S
C245        C246   1.417       .  A
C245       C1364   1.404       .  A
C246       C1361   1.396       .  A
C246        C247   1.510       .  S
C247        H251   1.109       .  S
C247        H252   1.109       .  S
C247        H253   1.106       .  S
C250        H254   1.111       .  S
C250        H255   1.110       .  S
C250        H256   1.111       .  S
C257        C258   1.406       .  A
C257        C262   1.405       .  A
C257        H264   1.083       .  S
C258        C259   1.424       .  A
C259        C260   1.408       .  A
C259        C266   1.510       .  S
C260        C261   1.405       .  A
C260        H265   1.084       .  S
C261        C262   1.419       .  A
C262        C263   1.508       .  S
C263        H267   1.110       .  S
C263        H268   1.110       .  S
C263        H269   1.109       .  S
C266        H270   1.110       .  S
C266        H271   1.110       .  S
C266        H272   1.111       .  S
C273        C274   1.399       .  A
C273        C838   1.396       .  A
C273        H280   1.085       .  S
C274        C275   1.411   1_554  A
C275        C836   1.397       .  A
C275        C282   1.508       .  S
C276        C277   1.398       .  A
C276        C835   1.397       .  A
C276        H281   1.085       .  S
C277        C278   1.412       .  A
C278        C833   1.397       .  A
C278        C279   1.508       .  S
C279        H283   1.111       .  S
C279        H284   1.107       .  S
C279        H285   1.110       .  S
C282        H286   1.110       .  S
C282        H287   1.108   1_556  S
C282        H288   1.111       .  S
C289        C290   1.398       .  A
C289        C294   1.403       .  A
C289        H296   1.085       .  S
C290        C291   1.420       .  A
C291       C1412   1.416       .  A
C291        C298   1.505       .  S
C292        C293   1.404   1_655  A
C292       C1411   1.416       .  A
C292        H297   1.084   1_655  S
C293       C1414   1.418       .  A
C294       C1413   1.418       .  A
C294        C295   1.505       .  S
C295        H299   1.111       .  S
C295        H300   1.109       .  S
C295       H1421   1.108       .  S
C298        H302   1.109       .  S
C298        H303   1.110       .  S
C298        H304   1.111       .  S
H301       C1415   1.108       .  S
C305        C306   1.405       .  A
C305        C310   1.404       .  A
C305        H312   1.084       .  S
C306        C307   1.409       .  A
C307        C308   1.413       .  A
C307        C314   1.504       .  S
C308        C309   1.411       .  A
C308        H313   1.084       .  S
C309        C310   1.413       .  A
C310        C311   1.509       .  S
C311        H315   1.111       .  S
C311        H316   1.108       .  S
C311        H317   1.110       .  S
C314        H318   1.110       .  S
C314        H319   1.110       .  S
C314        H320   1.111       .  S
C321        C322   1.415       .  A
C321        C886   1.410   1_554  A
C321        H888   1.083       .  S
C322        C323   1.420       .  A
C323        C324   1.412   1_554  A
C323        C330   1.507       .  S
C324        C885   1.409       .  A
C324        H329   1.083       .  S
C325        C326   1.413       .  A
C325        C884   1.408       .  A
C326        C881   1.408       .  A
C326        C327   1.508       .  S
C327        H331   1.111       .  S
C327        H332   1.109       .  S
C327        H333   1.110       .  S
H328        C881   1.083       .  S
C330        H334   1.110       .  S
C330        H335   1.110       .  S
C330        H336   1.111       .  S
C337        C338   1.405       .  A
C337        C342   1.406       .  A
C337        H344   1.084       .  S
C338        C339   1.418       .  A
C339        C340   1.405       .  A
C339        C346   1.509       .  S
C340        C341   1.409       .  A
C340        H345   1.083       .  S
C341        C342   1.421       .  A
C342        C343   1.508       .  S
C343        H347   1.111       .  S
C343        H348   1.110       .  S
C343        H349   1.109       .  S
C346        H350   1.110       .  S
C346        H351   1.110       .  S
C346        H352   1.111       .  S
C353        C354   1.406       .  A
C353        C358   1.404       .  A
C353        H360   1.084       .  S
C354        C355   1.421       .  A
C355        C356   1.407       .  A
C355        C362   1.507       .  S
C356        C357   1.404       .  A
C356        H361   1.084       .  S
C357        C358   1.418       .  A
C358        C359   1.510       .  S
C359        H363   1.111       .  S
C359        H364   1.108       .  S
C359        H365   1.111       .  S
C362        H366   1.110       .  S
C362        H367   1.111       .  S
C362        H368   1.111       .  S
C369        C374   1.412   1_556  A
C369        C930   1.415       .  A
C369        H376   1.083       .  S
C370        C371   1.419       .  A
C370        C929   1.413       .  A
C371       C2052   1.409       .  A
C371        C378   1.508       .  S
C372        C373   1.409       .  A
C372       C2051   1.412   1_454  A
C372        H937   1.083       .  S
C373       C1494   1.414   1_455  A
C374       C1493   1.414       .  A
C374        C375   1.507       .  S
C375        H379   1.111       .  S
C375        H380   1.109       .  S
C375        H381   1.110       .  S
H377        C932   1.083       .  S
C378        H382   1.110       .  S
C378        H383   1.110       .  S
C378       H1504   1.111       .  S
H384       C1498   1.111       .  S
C385        C386   1.409       .  A
C385        C390   1.405   1_545  A
C385        H392   1.083       .  S
C386        C387   1.419       .  A
C387        C388   1.407   1_545  A
C387        C394   1.508       .  S
C388        C389   1.407       .  A
C388        H393   1.084       .  S
C389        C390   1.417       .  A
C390        C391   1.508       .  S
C391        H395   1.111       .  S
C391        H396   1.110       .  S
C391        H397   1.110       .  S
C394        H398   1.111       .  S
C394        H399   1.109       .  S
C394        H400   1.111       .  S
C401        C402   1.408       .  A
C401        C406   1.412       .  A
C401        H408   1.084       .  S
C402        C403   1.429       .  A
C403        C404   1.406       .  A
C403        C410   1.511       .  S
C404        C405   1.398       .  A
C404        H409   1.084       .  S
C405        C406   1.419       .  A
C406        C407   1.509       .  S
C407        H411   1.111       .  S
C407        H412   1.109       .  S
C407        H413   1.111       .  S
C410        H414   1.111       .  S
C410        H415   1.109       .  S
C410        H416   1.111       .  S
C417        C418   1.408       .  A
C417        C982   1.397   1_554  A
C417        H424   1.084       .  S
C418        C419   1.405       .  A
C419        C980   1.397   1_554  A
C419        C426   1.508       .  S
C420        C421   1.406       .  A
C420        C979   1.399       .  A
C420        H425   1.083       .  S
C421        C422   1.403       .  A
C422        C977   1.397       .  A
C422        C423   1.505       .  S
C423        H428   1.109       .  S
C423        H429   1.110       .  S
C423        H987   1.105       .  S
C426        H430   1.109       .  S
C426        H431   1.111       .  S
C426        H992   1.111   1_554  S
H427        C983   1.111       .  S
H432        C986   1.111       .  S
C433        C434   1.410       .  A
C433        C438   1.414       .  A
C433        H440   1.084       .  S
C434        C435   1.414       .  A
C435        C436   1.400       .  A
C435        C442   1.511       .  S
C436        C437   1.405       .  A
C436        H441   1.084       .  S
C437        C438   1.411       .  A
C438        C439   1.504       .  S
C439        H443   1.111       .  S
C439        H444   1.110       .  S
C439        H445   1.110       .  S
C442        H446   1.110       .  S
C442        H447   1.108       .  S
C442        H448   1.111       .  S
C449        C450   1.398       .  A
C449       C1574   1.400   1_455  A
C449        H456   1.085       .  S
C450       C1571   1.420       .  A
C451        C452   1.410       .  A
C451       C1570   1.420       .  A
C451        C458   1.507       .  S
C452        C453   1.402       .  A
C452        H457   1.084       .  S
C453        C454   1.418       .  A
C454       C1569   1.401       .  A
C454        C455   1.508       .  S
C455        H460   1.109       .  S
C455        H461   1.109       .  S
C455       H1579   1.111       .  S
C458        H464   1.111       .  S
C458       H1582   1.110       .  S
C458       H1583   1.107       .  S
H459       C1575   1.111       .  S
H462       C1578   1.110       .  S
H463       C1578   1.107       .  S
C465        C466   1.403       .  A
C465        C470   1.405   1_565  A
C465        H472   1.084       .  S
C466        C467   1.417       .  A
C467        C468   1.403   1_565  A
C467        C474   1.509       .  S
C468        C469   1.405       .  A
C468        H473   1.084       .  S
C469        C470   1.421       .  A
C470        C471   1.508       .  S
C471        H475   1.111       .  S
C471        H476   1.110       .  S
C471        H477   1.110       .  S
C474        H478   1.108       .  S
C474        H479   1.110       .  S
C474        H480   1.111       .  S
C481        C482   1.414       .  A
C481        C486   1.408       .  A
C481        H488   1.084       .  S
C482        C483   1.415       .  A
C483        C484   1.407       .  A
C483        C490   1.507       .  S
C484        C485   1.410       .  A
C484        H489   1.084       .  S
C485        C486   1.412       .  A
C486        C487   1.508       .  S
C487        H491   1.111       .  S
C487        H492   1.111       .  S
C487        H493   1.109       .  S
C490        H494   1.109       .  S
C490        H495   1.110       .  S
C490        H496   1.111       .  S
C497        C498   1.405   1_556  A
C497       C1062   1.397       .  A
C497        H504   1.085       .  S
C498        C499   1.411       .  A
C499       C1060   1.395   1_554  A
C499        C506   1.508       .  S
C500        C501   1.407       .  A
C500       C1059   1.397       .  A
C500        H505   1.085       .  S
C501        C502   1.410       .  A
C502       C1057   1.398       .  A
C502        C503   1.508       .  S
C503        H507   1.111       .  S
C503        H508   1.110       .  S
C503        H509   1.110       .  S
C506        H510   1.110       .  S
C506        H511   1.110       .  S
C506        H512   1.111       .  S
C513        C514   1.395       .  A
C513        C518   1.401       .  A
C513        H520   1.085       .  S
C514        C515   1.418       .  A
C515       C1636   1.410       .  A
C515        C522   1.506       .  S
C516        C517   1.404       .  A
C516       C1635   1.410       .  A
C516        H521   1.084       .  S
C517       C1638   1.424       .  A
C518       C1637   1.424       .  A
C518        C519   1.508       .  S
C519        H523   1.111       .  S
C519        H525   1.109       .  S
C519       H1644   1.109       .  S
C522        H526   1.110       .  S
C522        H527   1.109       .  S
C522        H528   1.111       .  S
H524       C1639   1.108       .  S
C529        C530   1.408       .  A
C529        C534   1.417       .  A
C529        H536   1.084       .  S
C530        C531   1.418       .  A
C531        C532   1.396       .  A
C531        C538   1.509       .  S
C532        C533   1.400       .  A
C532        H537   1.085       .  S
C533        C534   1.419       .  A
C534        C535   1.506       .  S
C535        H539   1.111       .  S
C535        H540   1.111       .  S
C535        H541   1.110       .  S
C538        H542   1.109       .  S
C538        H543   1.106       .  S
C538        H544   1.109       .  S
C545        C546   1.405       .  A
C545       C1110   1.412       .  A
C545        H552   1.083       .  S
C546       C1107   1.431       .  A
C547        C548   1.409       .  A
C547       C1106   1.428   1_554  A
C547        C554   1.511       .  S
C548        C549   1.403       .  A
C548        H553   1.084       .  S
C549        C550   1.424       .  A
C550       C1105   1.414   1_554  A
C550        C551   1.508       .  S
C551        H556   1.108       .  S
C551        H557   1.111       .  S
C551       H1115   1.111   1_554  S
C554        H560   1.109       .  S
C554       H1118   1.110   1_554  S
C554       H1119   1.110   1_554  S
H555       C1111   1.111       .  S
H558       C1114   1.108       .  S
H559       C1114   1.110       .  S
Fe561       O577   2.098       .  S
Fe561       O567   2.053       .  S
Fe561       O574   2.083       .  S
Fe561       O566   2.090       .  S
Fe561       O572   1.968       .  S
Fe562       O565   2.027       .  S
Fe562       O569   2.069       .  S
Fe562       O573   2.044       .  S
Fe562       O578   2.082       .  S
Fe562       O572   1.975       .  S
Fe563       O581   2.066       .  S
Fe563       O568   2.061       .  S
Fe563       O575   2.065       .  S
Fe563       O564   2.063       .  S
Fe563       O572   1.963       .  S
O564        C571   1.277       .  A
O565        C579   1.261       .  A
O566        C571   1.281       .  A
O567        C570   1.264       .  A
O568        C580   1.270       .  A
O569        C582   1.271       .  A
C570        O575   1.263       .  A
C570       C1093   1.475       .  S
C571       C1042   1.496       .  S
O573        C576   1.261       .  A
O574        C576   1.269       .  A
C576       C1026   1.493       .  S
O577        C582   1.280       .  A
O578        C580   1.273       .  A
C579        O581   1.271       .  A
C579       C1058   1.468       .  S
C580       C1074   1.500       .  S
C582       C1109   1.511       .  S
Fe583       O599   2.126       .  S
Fe583       O589   2.041       .  S
Fe583       O596   2.064       .  S
Fe583       O588   2.126       .  S
Fe583       O594   1.945       .  S
Fe584       O587   2.047       .  S
Fe584       O591   2.045       .  S
Fe584       O595   2.061       .  S
Fe584       O600   2.061       .  S
Fe584       O594   1.957       .  S
Fe585       O603   2.059       .  S
Fe585       O590   2.082       .  S
Fe585       O597   2.112       .  S
Fe585       O586   2.039       .  S
Fe585       O594   1.950       .  S
O586        C593   1.268       .  A
O587        C601   1.268       .  A
O588        C593   1.286       .  A
O589        C592   1.261       .  A
O590        C602   1.274       .  A
O591        C604   1.266       .  A
C592        O597   1.273       .  A
C592        C994   1.489       .  S
C593        C962   1.490       .  S
O595        C598   1.268       .  A
O596        C598   1.267       .  A
C598        C949   1.485       .  S
O599        C604   1.283       .  A
O600        C602   1.270       .  A
C601        O603   1.273       .  A
C601        C981   1.481       .  S
C602       C1010   1.485       .  S
C604       C1106   1.508       .  S
Fe605       O621   2.064       .  S
Fe605       O611   2.107       .  S
Fe605       O618   2.112       .  S
Fe605       O610   2.047       .  S
Fe605       O616   1.944       .  S
Fe606       O609   2.077       .  S
Fe606       O613   2.066       .  S
Fe606       O617   2.058       .  S
Fe606       O622   2.043       .  S
Fe606       O616   1.951       .  S
Fe607       O625   2.089       .  S
Fe607       O612   2.058       .  S
Fe607       O619   2.044       .  S
Fe607       O608   2.104       .  S
Fe607       O616   1.959       .  S
O608        C615   1.269       .  A
O609        C623   1.270       .  A
O610        C615   1.261       .  A
O611        C614   1.283       .  A
O612        C624   1.274       .  A
O613        C626   1.270       .  A
C614        O619   1.274       .  A
C614       C1045   1.486       .  S
C615       C1013   1.486       .  S
O617        C620   1.270       .  A
O618        C620   1.280       .  A
C620        C930   1.512       .  S
O621        C626   1.266       .  A
O622        C624   1.269       .  A
C623        O625   1.271       .  A
C623        C997   1.486       .  S
C624       C1061   1.457       .  S
C626        C914   1.493       .  S
Fe627       O643   2.078       .  S
Fe627       O633   2.123       .  S
Fe627       O640   2.107       .  S
Fe627       O632   2.049       .  S
Fe627       O638   1.943       .  S
Fe628       O631   2.055       .  S
Fe628       O635   2.070       .  S
Fe628       O639   2.044       .  S
Fe628       O644   2.054       .  S
Fe628       O638   1.949       .  S
Fe629       O647   2.094       .  S
Fe629       O634   2.063       .  S
Fe629       O641   2.045       .  S
Fe629       O630   2.116       .  S
Fe629       O638   1.952       .  S
O630        C637   1.273       .  A
O631        C645   1.270       .  A
O632        C637   1.261       .  A
O633        C636   1.285       .  A
O634        C646   1.272       .  A
O635        C648   1.269       .  A
C636        O641   1.270       .  A
C636        C965   1.490       .  S
C637       C1077   1.497       .  S
O639        C642   1.267       .  A
O640        C642   1.278       .  A
C642        C933   1.506       .  S
O643        C648   1.272       .  A
O644        C646   1.268       .  A
C645        O647   1.276       .  A
C645       C1090   1.477       .  S
C646        C978   1.459       .  S
C648        C901   1.490       .  S
Fe649       O665   2.070       .  S
Fe649       O655   2.123       .  S
Fe649       O662   2.112       .  S
Fe649       O654   2.042       .  S
Fe649       O660   1.949       .  S
Fe650       O653   2.064       .  S
Fe650       O657   2.067       .  S
Fe650       O661   2.042       .  S
Fe650       O666   2.037       .  S
Fe650       O660   1.958       .  S
Fe651       O669   2.084       .  S
Fe651       O656   2.066       .  S
Fe651       O663   2.049       .  S
Fe651       O652   2.104       .  S
Fe651       O660   1.958       .  S
O652        C659   1.270       .  A
O653        C667   1.271       .  A
O654        C659   1.260       .  A
O655        C658   1.286       .  A
O656        C668   1.274       .  A
O657        C670   1.270       .  A
C658        O663   1.272       .  A
C658        C818   1.504       .  S
C659        C866   1.482       .  S
O661        C664   1.266       .  A
O662        C664   1.279       .  A
C664        C882   1.506       .  S
O665        C670   1.269       .  A
O666        C668   1.264       .  A
C667        O669   1.273       .  A
C667        C850   1.483       .  S
C668        C834   1.455       .  S
C670       C1029   1.490       .  S
Fe671       O687   2.068       .  S
Fe671       O677   2.076       .  S
Fe671       O684   2.077       .  S
Fe671       O676   2.044       .  S
Fe671       O682   1.944       .  S
Fe672       O675   2.082       .  S
Fe672       O679   2.060       .  S
Fe672       O683   2.094       .  S
Fe672       O688   2.023       .  S
Fe672       O682   1.954       .  S
Fe673       O691   2.060       .  S
Fe673       O678   2.074       .  S
Fe673       O685   2.082       .  S
Fe673       O674   2.080       .  S
Fe673       O682   1.940       .  S
O674        C681   1.267       .  A
O675        C689   1.272       .  A
O676        C681   1.260       .  A
O677        C680   1.282       .  A
O678        C690   1.273       .  A
O679        C692   1.262       .  A
C680        O685   1.279       .  A
C680        C757   1.497       .  S
C681        C786   1.483       .  S
O683        C686   1.278       .  A
O684        C686   1.276       .  A
C686        C885   1.498       .  S
O687        C692   1.267       .  A
O688        C690   1.262       .  A
C689        O691   1.270       .  A
C689        C805   1.484       .  S
C690        C770   1.459       .  S
C692        C946   1.493       .  S
Fe693       O709   2.115       .  S
Fe693       O699   2.033       .  S
Fe693       O706   2.076       .  S
Fe693       O698   2.106       .  S
Fe693       O704   1.961       .  S
Fe694       O697   2.021       .  S
Fe694       O701   2.052       .  S
Fe694       O705   2.045       .  S
Fe694       O710   2.057       .  S
Fe694       O704   1.970       .  S
Fe695       O713   2.064       .  S
Fe695       O700   2.084       .  S
Fe695       O707   2.092       .  S
Fe695       O696   2.060       .  S
Fe695       O704   1.970       .  S
O696        C703   1.272       .  A
O697        C711   1.258       .  A
O698        C703   1.283       .  A
O699        C702   1.262       .  A
O700        C712   1.275       .  A
O701        C714   1.267       .  A
C702        O707   1.270       .  A
C702        C802   1.491       .  S
C703        C821   1.496       .  S
O705        C708   1.260       .  A
O706        C708   1.267       .  A
C708        C917   1.489       .  S
O709        C714   1.283       .  A
O710        C712   1.271       .  A
C711        O713   1.268       .  A
C711        C837   1.450       .  S
C712        C789   1.474       .  S
C714        C738   1.502       .  S
Fe715       O731   2.117       .  S
Fe715       O721   2.052       .  S
Fe715       O728   2.068       .  S
Fe715       O720   2.122       .  S
Fe715       O726   1.951       .  S
Fe716       O719   2.066       .  S
Fe716       O723   2.044       .  S
Fe716       O727   2.076       .  S
Fe716       O732   2.064       .  S
Fe716       O726   1.954       .  S
Fe717       O735   2.062       .  S
Fe717       O722   2.086       .  S
Fe717       O729   2.110       .  S
Fe717       O718   2.036       .  S
Fe717       O726   1.951       .  S
O718        C725   1.271       .  A
O719        C733   1.271       .  A
O720        C725   1.284       .  A
O721        C724   1.263       .  A
O722        C734   1.272       .  A
O723        C736   1.267       .  A
C724        O729   1.272       .  A
C724        C853   1.488       .  S
C725        C754   1.496       .  S
O727        C730   1.271       .  A
O728        C730   1.268       .  A
C730        C898   1.495       .  S
O731        C736   1.282       .  A
O732        C734   1.270       .  A
C733        O735   1.274       .  A
C733        C773   1.471       .  S
C734        C869   1.486       .  S
C736        C741   1.502       .  S
C737        C738   1.402       .  A
C737       C1302   1.408   1_556  A
C737        H744   1.084       .  S
C739        C740   1.412       .  A
C739        C746   1.508       .  S
C740       C1861   1.406       .  A
C740        H745   1.084       .  S
C741       C1860   1.406   1_455  A
C741        C742   1.427       .  A
C742       C1297   1.406       .  A
C742        C743   1.510       .  S
C743        H748   1.109       .  S
C743        H749   1.110       .  S
C746        H752   1.111       .  S
C753        C754   1.411       .  A
C753        C758   1.402       .  A
C753        H760   1.084       .  S
C754        C755   1.414       .  A
C755        C756   1.409       .  A
C755        C762   1.507       .  S
C756        C757   1.414       .  A
C756        H761   1.083       .  S
C757        C758   1.416       .  A
C758        C759   1.509       .  S
C759        H763   1.111       .  S
C759        H764   1.110       .  S
C759        H765   1.110       .  S
C762        H766   1.107       .  S
C762        H767   1.110       .  S
C762        H768   1.111       .  S
C769        C770   1.406       .  A
C769        H776   1.085       .  S
C770        C771   1.404   1_556  A
C771        C778   1.508       .  S
C772        C773   1.410       .  A
C772        H777   1.085       .  S
C773        C774   1.408       .  A
C774        C775   1.507       .  S
C775        H780   1.109       .  S
C775        H781   1.110       .  S
C778        H782   1.108   1_554  S
C778        H783   1.110       .  S
C785        C786   1.410       .  A
C785        C790   1.400       .  A
C785        H792   1.085       .  S
C786        C787   1.412       .  A
C787        C788   1.409       .  A
C787        C794   1.506       .  S
C788        C789   1.408       .  A
C788        H793   1.084       .  S
C789        C790   1.406       .  A
C790        C791   1.505       .  S
C791        H795   1.111       .  S
C791        H796   1.107       .  S
C791        H797   1.110       .  S
C794        H798   1.111       .  S
C794        H799   1.110       .  S
C794        H800   1.111       .  S
C801        C802   1.403       .  A
C801       C1926   1.396       .  A
C801        H808   1.084       .  S
C802        C803   1.419       .  A
C803        C804   1.414       .  A
C803        C810   1.505       .  S
C804       C1925   1.406       .  A
C804        H809   1.084       .  S
C805       C1924   1.406       .  A
C805        C806   1.417       .  A
C806       C1921   1.396       .  A
C806        C807   1.511       .  S
C807        H811   1.110       .  S
C807        H812   1.109       .  S
C807        H813   1.108       .  S
C810        H814   1.111       .  S
C810        H815   1.110       .  S
C810        H816   1.111       .  S
C817        C818   1.408       .  A
C817        C822   1.409       .  A
C817        H824   1.083       .  S
C818        C819   1.425       .  A
C819        C820   1.409       .  A
C819        C826   1.510       .  S
C820        C821   1.403       .  A
C820        H825   1.084       .  S
C821        C822   1.418       .  A
C822        C823   1.506       .  S
C823        H827   1.110       .  S
C823        H828   1.110       .  S
C823        H829   1.108       .  S
C826        H830   1.110       .  S
C826        H831   1.110       .  S
C826        H832   1.111       .  S
C833        C834   1.400       .  A
C833        H840   1.085       .  S
C834        C835   1.413       .  A
C835        C842   1.509       .  S
C836        C837   1.400       .  A
C836        H841   1.085       .  S
C837        C838   1.411   1_556  A
C838        C839   1.508       .  S
C839        H843   1.111       .  S
C839        H844   1.107   1_554  S
C839        H845   1.110       .  S
C842        H846   1.110       .  S
C842        H847   1.109       .  S
C842        H848   1.111       .  S
C849        C850   1.395       .  A
C849        C854   1.399       .  A
C849        H856   1.085       .  S
C850        C851   1.421       .  A
C851       C1972   1.415       .  A
C851        C858   1.505       .  S
C852       C1971   1.415       .  A
C852        C853   1.403   1_655  A
C852        H857   1.084   1_655  S
C853       C1974   1.418       .  A
C854       C1973   1.417       .  A
C854        C855   1.501       .  S
C855        H859   1.111       .  S
C855        H860   1.109       .  S
C855       H1981   1.105       .  S
C858        H862   1.109       .  S
C858        H863   1.110       .  S
C858        H864   1.111       .  S
H861       C1975   1.105       .  S
C865        C866   1.404       .  A
C865        C870   1.403       .  A
C865        H872   1.084       .  S
C866        C867   1.409       .  A
C867        C868   1.413       .  A
C867        C874   1.504       .  S
C868        C869   1.411       .  A
C868        H873   1.084       .  S
C869        C870   1.413       .  A
C870        C871   1.509       .  S
C871        H875   1.111       .  S
C871        H876   1.108       .  S
C871        H877   1.110       .  S
C874        H878   1.110       .  S
C874        H879   1.110       .  S
C874        H880   1.111       .  S
C881        C882   1.415       .  A
C882        C883   1.419       .  A
C883        C884   1.409       .  A
C883        C890   1.507       .  S
C884        H889   1.083       .  S
C885        C886   1.413       .  A
C886        C887   1.507       .  S
C887        H891   1.111       .  S
C887        H892   1.109       .  S
C887        H893   1.110       .  S
C890        H894   1.110       .  S
C890        H895   1.110       .  S
C890        H896   1.111       .  S
C897        C898   1.406       .  A
C897        C902   1.406       .  A
C897        H904   1.084       .  S
C898        C899   1.421       .  A
C899        C900   1.409       .  A
C899        C906   1.508       .  S
C900        C901   1.405       .  A
C900        H905   1.084       .  S
C901        C902   1.417       .  A
C902        C903   1.508       .  S
C903        H907   1.111       .  S
C903        H908   1.110       .  S
C903        H909   1.108       .  S
C906        H910   1.110       .  S
C906        H911   1.110       .  S
C906        H912   1.111       .  S
C913        C914   1.405       .  A
C913        C918   1.403       .  A
C913        H920   1.084       .  S
C914        C915   1.421       .  A
C915        C916   1.407       .  A
C915        C922   1.508       .  S
C916        C917   1.404       .  A
C916        H921   1.084       .  S
C917        C918   1.419       .  A
C918        C919   1.510       .  S
C919        H923   1.111       .  S
C919        H924   1.108       .  S
C919        H925   1.110       .  S
C922        H926   1.110       .  S
C922        H927   1.111       .  S
C922        H928   1.111       .  S
C929        C934   1.409       .  A
C929        H936   1.083       .  S
C930        C931   1.421       .  A
C931       C1492   1.412   1_556  A
C931        C938   1.508       .  S
C932       C1491   1.408   1_455  A
C932        C933   1.413       .  A
C933       C2054   1.418   1_455  A
C934       C2053   1.419       .  A
C934        C935   1.509       .  S
C935        H939   1.111       .  S
C935        H940   1.110       .  S
C935        H941   1.110       .  S
C938        H942   1.110       .  S
C938        H943   1.110       .  S
C938       H2064   1.111       .  S
H944       C2058   1.111   1_455  S
C945        C946   1.408       .  A
C945        C950   1.401   1_545  A
C945        H952   1.083       .  S
C946        C947   1.419       .  A
C947        C948   1.406   1_545  A
C947        C954   1.508       .  S
C948        C949   1.406       .  A
C948        H953   1.084       .  S
C949        C950   1.416       .  A
C950        C951   1.509       .  S
C951        H955   1.111       .  S
C951        H956   1.110       .  S
C951        H957   1.110       .  S
C954        H958   1.111       .  S
C954        H959   1.109       .  S
C954        H960   1.111       .  S
C961        C962   1.405       .  A
C961        C966   1.408       .  A
C961        H968   1.084       .  S
C962        C963   1.420       .  A
C963        C964   1.408       .  A
C963        C970   1.509       .  S
C964        C965   1.405       .  A
C964        H969   1.084       .  S
C965        C966   1.417       .  A
C966        C967   1.506       .  S
C967        H971   1.111       .  S
C967        H972   1.106       .  S
C967        H973   1.110       .  S
C970        H974   1.110       .  S
C970        H975   1.109       .  S
C970        H976   1.111       .  S
C977        C978   1.405       .  A
C977        H984   1.083       .  S
C978        C979   1.405       .  A
C979        C986   1.506       .  S
C980        C981   1.414       .  A
C980        H985   1.082       .  S
C981        C982   1.412       .  A
C982        C983   1.509       .  S
C983        H988   1.110       .  S
C983        H989   1.110       .  S
C986        H990   1.110       .  S
C986        H991   1.111       .  S
C993        C994   1.411       .  A
C993        C998   1.415       .  A
C993       H1000   1.084       .  S
C994        C995   1.415       .  A
C995        C996   1.404       .  A
C995       C1002   1.510       .  S
C996        C997   1.404       .  A
C996       H1001   1.085       .  S
C997        C998   1.411       .  A
C998        C999   1.504       .  S
C999       H1003   1.111       .  S
C999       H1004   1.110       .  S
C999       H1005   1.111       .  S
C1002      H1006   1.110       .  S
C1002      H1007   1.109       .  S
C1002      H1008   1.111       .  S
C1009      C1010   1.399   1_655  A
C1009      C2134   1.399       .  A
C1009      H1016   1.085   1_655  S
C1010      C2131   1.421   1_455  A
C1011      C2130   1.421       .  A
C1011      C1012   1.414       .  A
C1011      C1018   1.506       .  S
C1012      C1013   1.403       .  A
C1012      H1017   1.084       .  S
C1013      C1014   1.418       .  A
C1014      C2129   1.400       .  A
C1014      C1015   1.507       .  S
C1015      H2139   1.111       .  S
C1015      H1020   1.107       .  S
C1015      H1021   1.109       .  S
C1018      H2142   1.110       .  S
C1018      H2143   1.108       .  S
C1018      H1024   1.111       .  S
H1019      C2135   1.111       .  S
H1022      C2138   1.110       .  S
H1023      C2138   1.109       .  S
C1025      C1026   1.406       .  A
C1025      C1030   1.408   1_565  A
C1025      H1032   1.084       .  S
C1026      C1027   1.420       .  A
C1027      C1028   1.405   1_565  A
C1027      C1034   1.510       .  S
C1028      C1029   1.404       .  A
C1028      H1033   1.084       .  S
C1029      C1030   1.419       .  A
C1030      C1031   1.508       .  S
C1031      H1035   1.111       .  S
C1031      H1036   1.110       .  S
C1031      H1037   1.110       .  S
C1034      H1038   1.108       .  S
C1034      H1039   1.110       .  S
C1034      H1040   1.111       .  S
C1041      C1042   1.413       .  A
C1041      C1046   1.406       .  A
C1041      H1048   1.083       .  S
C1042      C1043   1.417       .  A
C1043      C1044   1.405       .  A
C1043      C1050   1.508       .  S
C1044      C1045   1.408       .  A
C1044      H1049   1.084       .  S
C1045      C1046   1.411       .  A
C1046      C1047   1.508       .  S
C1047      H1051   1.111       .  S
C1047      H1052   1.111       .  S
C1047      H1053   1.109       .  S
C1050      H1054   1.109       .  S
C1050      H1055   1.110       .  S
C1050      H1056   1.111       .  S
C1057      C1058   1.407       .  A
C1057      H1064   1.082       .  S
C1058      C1059   1.410       .  A
C1059      C1066   1.508       .  S
C1060      C1061   1.402       .  A
C1060      H1065   1.085   1_556  S
C1061      C1062   1.409       .  A
C1062      C1063   1.508       .  S
C1063      H1067   1.111       .  S
C1063      H1068   1.110       .  S
C1063      H1069   1.110       .  S
C1066      H1070   1.110       .  S
C1066      H1071   1.111       .  S
C1066      H1072   1.111       .  S
C1073      C1074   1.405       .  A
C1073      C1078   1.400       .  A
C1073      H1080   1.084       .  S
C1074      C1075   1.422       .  A
C1075      C2196   1.418       .  A
C1075      C1082   1.506       .  S
C1076      C2195   1.419       .  A
C1076      C1077   1.408   1_655  A
C1076      H1081   1.084   1_655  S
C1077      C2198   1.420   1_455  A
C1078      C2197   1.420       .  A
C1078      C1079   1.511       .  S
C1079      H1083   1.111       .  S
C1079      H2204   1.108       .  S
C1079      H1085   1.110       .  S
C1082      H1086   1.110       .  S
C1082      H1087   1.110       .  S
C1082      H1088   1.111       .  S
H1084      C2199   1.108   1_455  S
C1089      C1090   1.410       .  A
C1089      C1094   1.411       .  A
C1089      H1096   1.084       .  S
C1090      C1091   1.407       .  A
C1091      C1092   1.401       .  A
C1091      C1098   1.505       .  S
C1092      C1093   1.404       .  A
C1092      H1097   1.085       .  S
C1093      C1094   1.408       .  A
C1094      C1095   1.505       .  S
C1095      H1099   1.111       .  S
C1095      H1100   1.110       .  S
C1095      H1101   1.109       .  S
C1098      H1102   1.111       .  S
C1098      H1103   1.108       .  S
C1098      H1104   1.111       .  S
C1105      C1106   1.405       .  A
C1105      H1112   1.084       .  S
C1107      C1108   1.409       .  A
C1107      C1114   1.512       .  S
C1108      C1109   1.405       .  A
C1108      H1113   1.083       .  S
C1109      C1110   1.427       .  A
C1110      C1111   1.508       .  S
C1111      H1116   1.107       .  S
C1111      H1117   1.110       .  S
C1114      H1120   1.111       .  S
Fe1121     O1137   2.112       .  S
Fe1121     O1127   2.033       .  S
Fe1121     O1134   2.073       .  S
Fe1121     O1126   2.100       .  S
Fe1121     O1132   1.966       .  S
Fe1122     O1125   2.019       .  S
Fe1122     O1129   2.053       .  S
Fe1122     O1133   2.041       .  S
Fe1122     O1138   2.061       .  S
Fe1122     O1132   1.977       .  S
Fe1123     O1141   2.063       .  S
Fe1123     O1128   2.083       .  S
Fe1123     O1135   2.095       .  S
Fe1123     O1124   2.058       .  S
Fe1123     O1132   1.970       .  S
O1124      C1131   1.273       .  A
O1125      C1139   1.258       .  A
O1126      C1131   1.281       .  A
O1127      C1130   1.262       .  A
O1128      C1140   1.275       .  A
O1129      C1142   1.267       .  A
C1130      O1135   1.270       .  A
C1130      C1653   1.489       .  S
C1131      C1602   1.499       .  S
O1133      C1136   1.260       .  A
O1134      C1136   1.266       .  A
C1136      C1586   1.484       .  S
O1137      C1142   1.282       .  A
O1138      C1140   1.271       .  A
C1139      O1141   1.268       .  A
C1139      C1618   1.461       .  S
C1140      C1634   1.479       .  S
C1142      C1669   1.503       .  S
Fe1143     O1159   2.126       .  S
Fe1143     O1149   2.035       .  S
Fe1143     O1156   2.071       .  S
Fe1143     O1148   2.127       .  S
Fe1143     O1154   1.955       .  S
Fe1144     O1147   2.045       .  S
Fe1144     O1151   2.044       .  S
Fe1144     O1155   2.055       .  S
Fe1144     O1160   2.056       .  S
Fe1144     O1154   1.968       .  S
Fe1145     O1163   2.059       .  S
Fe1145     O1150   2.088       .  S
Fe1145     O1157   2.092       .  S
Fe1145     O1146   2.042       .  S
Fe1145     O1154   1.957       .  S
O1146      C1153   1.270       .  A
O1147      C1161   1.262       .  A
O1148      C1153   1.289       .  A
O1149      C1152   1.259       .  A
O1150      C1162   1.276       .  A
O1151      C1164   1.267       .  A
C1152      O1157   1.269       .  A
C1152      C1554   1.482       .  S
C1153      C1522   1.504       .  S
O1155      C1158   1.264       .  A
O1156      C1158   1.265       .  A
C1158      C1509   1.492       .  S
O1159      C1164   1.286       .  A
O1160      C1162   1.271       .  A
C1161      O1163   1.268       .  A
C1161      C1541   1.458       .  S
C1162      C1570   1.479       .  S
C1164      C1666   1.512       .  S
Fe1165     O1181   2.068       .  S
Fe1165     O1171   2.108       .  S
Fe1165     O1178   2.109       .  S
Fe1165     O1170   2.045       .  S
Fe1165     O1176   1.951       .  S
Fe1166     O1169   2.070       .  S
Fe1166     O1173   2.062       .  S
Fe1166     O1177   2.048       .  S
Fe1166     O1182   2.040       .  S
Fe1166     O1176   1.960       .  S
Fe1167     O1185   2.080       .  S
Fe1167     O1172   2.068       .  S
Fe1167     O1179   2.054       .  S
Fe1167     O1168   2.087       .  S
Fe1167     O1176   1.959       .  S
O1168      C1175   1.267       .  A
O1169      C1183   1.271       .  A
O1170      C1175   1.262       .  A
O1171      C1174   1.284       .  A
O1172      C1184   1.273       .  A
O1173      C1186   1.267       .  A
C1174      O1179   1.276       .  A
C1174      C1605   1.493       .  S
C1175      C1573   1.480       .  S
O1177      C1180   1.269       .  A
O1178      C1180   1.280       .  A
C1180      C1490   1.507       .  S
O1181      C1186   1.266       .  A
O1182      C1184   1.266       .  A
C1183      O1185   1.273       .  A
C1183      C1557   1.486       .  S
C1184      C1621   1.467       .  S
C1186      C1474   1.495       .  S
Fe1187     O1203   2.084       .  S
Fe1187     O1193   2.095       .  S
Fe1187     O1200   2.089       .  S
Fe1187     O1192   2.044       .  S
Fe1187     O1198   1.951       .  S
Fe1188     O1191   2.084       .  S
Fe1188     O1195   2.056       .  S
Fe1188     O1199   2.089       .  S
Fe1188     O1204   2.025       .  S
Fe1188     O1198   1.960       .  S
Fe1189     O1207   2.067       .  S
Fe1189     O1194   2.073       .  S
Fe1189     O1201   2.076       .  S
Fe1189     O1190   2.088       .  S
Fe1189     O1198   1.950       .  S
O1190      C1197   1.269       .  A
O1191      C1205   1.271       .  A
O1192      C1197   1.259       .  A
O1193      C1196   1.287       .  A
O1194      C1206   1.274       .  A
O1195      C1208   1.263       .  A
C1196      O1201   1.277       .  A
C1196      C1525   1.491       .  S
C1197      C1637   1.491       .  S
O1199      C1202   1.275       .  A
O1200      C1202   1.276       .  A
C1202      C1493   1.502       .  S
O1203      C1208   1.270       .  A
O1204      C1206   1.264       .  A
C1205      O1207   1.270       .  A
C1205      C1650   1.488       .  S
C1206      C1538   1.469       .  S
C1208      C1461   1.499       .  S
Fe1209     O1225   2.063       .  S
Fe1209     O1215   2.115       .  S
Fe1209     O1222   2.114       .  S
Fe1209     O1214   2.041       .  S
Fe1209     O1220   1.951       .  S
Fe1210     O1213   2.071       .  S
Fe1210     O1217   2.065       .  S
Fe1210     O1221   2.050       .  S
Fe1210     O1226   2.037       .  S
Fe1210     O1220   1.959       .  S
Fe1211     O1229   2.086       .  S
Fe1211     O1216   2.060       .  S
Fe1211     O1223   2.045       .  S
Fe1211     O1212   2.104       .  S
Fe1211     O1220   1.959       .  S
O1212      C1219   1.270       .  A
O1213      C1227   1.271       .  A
O1214      C1219   1.260       .  A
O1215      C1218   1.286       .  A
O1216      C1228   1.273       .  A
O1217      C1230   1.270       .  A
C1218      O1223   1.271       .  A
C1218      C1378   1.498       .  S
C1219      C1426   1.482       .  S
O1221      C1224   1.268       .  A
O1222      C1224   1.279       .  A
C1224      C1442   1.510       .  S
O1225      C1230   1.267       .  A
O1226      C1228   1.265       .  A
C1227      O1229   1.273       .  A
C1227      C1410   1.488       .  S
C1228      C1394   1.450       .  S
C1230      C1589   1.488       .  S
Fe1231     O1247   2.074       .  S
Fe1231     O1237   2.069       .  S
Fe1231     O1244   2.071       .  S
Fe1231     O1236   2.048       .  S
Fe1231     O1242   1.946       .  S
Fe1232     O1235   2.079       .  S
Fe1232     O1239   2.065       .  S
Fe1232     O1243   2.093       .  S
Fe1232     O1248   2.033       .  S
Fe1232     O1242   1.955       .  S
Fe1233     O1251   2.059       .  S
Fe1233     O1238   2.082       .  S
Fe1233     O1245   2.096       .  S
Fe1233     O1234   2.080       .  S
Fe1233     O1242   1.943       .  S
O1234      C1241   1.266       .  A
O1235      C1249   1.273       .  A
O1236      C1241   1.260       .  A
O1237      C1240   1.282       .  A
O1238      C1250   1.274       .  A
O1239      C1252   1.263       .  A
C1240      O1245   1.282       .  A
C1240      C1317   1.498       .  S
C1241      C1346   1.480       .  S
O1243      C1246   1.278       .  A
O1244      C1246   1.276       .  A
C1246      C1445   1.494       .  S
O1247      C1252   1.267       .  A
O1248      C1250   1.263       .  A
C1249      O1251   1.271       .  A
C1249      C1365   1.482       .  S
C1250      C1330   1.464       .  S
C1252      C1506   1.499       .  S
Fe1253     O1269   2.111       .  S
Fe1253     O1259   2.037       .  S
Fe1253     O1266   2.077       .  S
Fe1253     O1258   2.105       .  S
Fe1253     O1264   1.954       .  S
Fe1254     O1257   2.030       .  S
Fe1254     O1261   2.042       .  S
Fe1254     O1265   2.048       .  S
Fe1254     O1270   2.055       .  S
Fe1254     O1264   1.959       .  S
Fe1255     O1273   2.063       .  S
Fe1255     O1260   2.085       .  S
Fe1255     O1267   2.091       .  S
Fe1255     O1256   2.050       .  S
Fe1255     O1264   1.960       .  S
O1256      C1263   1.270       .  A
O1257      C1271   1.261       .  A
O1258      C1263   1.282       .  A
O1259      C1262   1.264       .  A
O1260      C1272   1.274       .  A
O1261      C1274   1.265       .  A
C1262      O1267   1.270       .  A
C1262      C1362   1.489       .  S
C1263      C1381   1.493       .  S
O1265      C1268   1.262       .  A
O1266      C1268   1.269       .  A
C1268      C1477   1.489       .  S
O1269      C1274   1.281       .  A
O1270      C1272   1.270       .  A
C1271      O1273   1.269       .  A
C1271      C1397   1.453       .  S
C1272      C1349   1.471       .  S
C1274      C1298   1.494       .  S
Fe1275     O1291   2.123       .  S
Fe1275     O1281   2.048       .  S
Fe1275     O1288   2.065       .  S
Fe1275     O1280   2.127       .  S
Fe1275     O1286   1.951       .  S
Fe1276     O1279   2.053       .  S
Fe1276     O1283   2.049       .  S
Fe1276     O1287   2.067       .  S
Fe1276     O1292   2.067       .  S
Fe1276     O1286   1.956       .  S
Fe1277     O1295   2.058       .  S
Fe1277     O1282   2.088       .  S
Fe1277     O1289   2.116       .  S
Fe1277     O1278   2.034       .  S
Fe1277     O1286   1.952       .  S
O1278      C1285   1.270       .  A
O1279      C1293   1.269       .  A
O1280      C1285   1.285       .  A
O1281      C1284   1.261       .  A
O1282      C1294   1.273       .  A
O1283      C1296   1.267       .  A
C1284      O1289   1.273       .  A
C1284      C1413   1.490       .  S
C1285      C1314   1.498       .  S
O1287      C1290   1.269       .  A
O1288      C1290   1.266       .  A
C1290      C1458   1.492       .  S
O1291      C1296   1.283       .  A
O1292      C1294   1.271       .  A
C1293      O1295   1.273       .  A
C1293      C1333   1.471       .  S
C1294      C1429   1.487       .  S
C1296      C1301   1.508       .  S
C1297      C1298   1.401   1_455  A
C1297      H1304   1.084       .  S
C1298      C1859   1.421       .  A
C1299      C1858   1.423   1_554  A
C1299      C1300   1.414       .  A
C1299      C1306   1.509       .  S
C1300      H1305   1.084       .  S
C1301      C1302   1.428       .  A
C1302      C1303   1.511       .  S
C1303      H1867   1.110   1_554  S
C1303      H1308   1.110       .  S
C1303      H1309   1.110       .  S
C1306      H1870   1.107   1_554  S
C1306      H1871   1.110   1_554  S
C1306      H1312   1.111       .  S
H1307      C1863   1.109       .  S
H1310      C1866   1.107       .  S
H1311      C1866   1.110       .  S
C1313      C1314   1.410       .  A
C1313      C1318   1.401       .  A
C1313      H1320   1.083       .  S
C1314      C1315   1.414       .  A
C1315      C1316   1.412       .  A
C1315      C1322   1.506       .  S
C1316      C1317   1.414       .  A
C1316      H1321   1.083       .  S
C1317      C1318   1.417       .  A
C1318      C1319   1.510       .  S
C1319      H1323   1.111       .  S
C1319      H1324   1.110       .  S
C1319      H1325   1.111       .  S
C1322      H1326   1.109       .  S
C1322      H1327   1.111       .  S
C1322      H1328   1.111       .  S
C1329      C1330   1.407       .  A
C1329      C1894   1.400       .  A
C1329      H1336   1.085       .  S
C1330      C1331   1.405       .  A
C1331      C1892   1.399       .  A
C1331      C1338   1.507       .  S
C1332      C1891   1.396       .  A
C1332      C1333   1.412       .  A
C1332      H1337   1.085       .  S
C1333      C1334   1.409       .  A
C1334      C1889   1.397   1_554  A
C1334      C1335   1.508       .  S
C1335      H1899   1.111       .  S
C1335      H1340   1.110       .  S
C1335      H1341   1.110       .  S
C1338      H1342   1.109       .  S
C1338      H1343   1.111       .  S
C1338      H1904   1.110       .  S
H1339      C1895   1.111       .  S
H1344      C1898   1.110       .  S
C1345      C1346   1.410       .  A
C1345      C1350   1.402       .  A
C1345      H1352   1.085       .  S
C1346      C1347   1.411       .  A
C1347      C1348   1.407       .  A
C1347      C1354   1.506       .  S
C1348      C1349   1.407       .  A
C1348      H1353   1.085       .  S
C1349      C1350   1.405       .  A
C1350      C1351   1.505       .  S
C1351      H1355   1.111       .  S
C1351      H1356   1.109       .  S
C1351      H1357   1.110       .  S
C1354      H1358   1.111       .  S
C1354      H1359   1.110       .  S
C1354      H1360   1.111       .  S
C1361      C1362   1.403   1_455  A
C1361      H1368   1.084       .  S
C1362      C1363   1.420       .  A
C1363      C1364   1.413   1_655  A
C1363      C1370   1.506       .  S
C1364      H1369   1.084       .  S
C1365      C1366   1.418       .  A
C1366      C1367   1.510       .  S
C1367      H1371   1.109       .  S
C1367      H1372   1.109       .  S
C1367      H1373   1.106       .  S
C1370      H1374   1.111       .  S
C1370      H1375   1.110       .  S
C1370      H1376   1.111       .  S
C1377      C1378   1.406       .  A
C1377      C1382   1.405       .  A
C1377      H1384   1.083       .  S
C1378      C1379   1.424       .  A
C1379      C1380   1.408       .  A
C1379      C1386   1.510       .  S
C1380      C1381   1.405       .  A
C1380      H1385   1.084       .  S
C1381      C1382   1.419       .  A
C1382      C1383   1.508       .  S
C1383      H1387   1.110       .  S
C1383      H1388   1.110       .  S
C1383      H1389   1.109       .  S
C1386      H1390   1.110       .  S
C1386      H1391   1.110       .  S
C1386      H1392   1.111       .  S
C1393      C1394   1.399       .  A
C1393      C1958   1.396       .  A
C1393      H1400   1.085       .  S
C1394      C1395   1.411   1_554  A
C1395      C1956   1.397       .  A
C1395      C1402   1.508       .  S
C1396      C1955   1.397       .  A
C1396      C1397   1.399       .  A
C1396      H1401   1.085       .  S
C1397      C1398   1.412       .  A
C1398      C1953   1.397       .  A
C1398      C1399   1.508       .  S
C1399      H1403   1.111       .  S
C1399      H1404   1.107       .  S
C1399      H1405   1.110       .  S
C1402      H1406   1.110       .  S
C1402      H1407   1.108   1_556  S
C1402      H1408   1.111       .  S
C1409      C1410   1.398       .  A
C1409      C1414   1.403   1_655  A
C1409      H1416   1.085       .  S
C1410      C1411   1.420       .  A
C1411      C1418   1.505       .  S
C1412      C1413   1.404       .  A
C1412      H1417   1.084       .  S
C1414      C1415   1.504       .  S
C1415      H1419   1.111       .  S
C1415      H1420   1.109       .  S
C1418      H1422   1.109       .  S
C1418      H1423   1.110       .  S
C1418      H1424   1.111       .  S
C1425      C1426   1.405       .  A
C1425      C1430   1.404       .  A
C1425      H1432   1.084       .  S
C1426      C1427   1.409       .  A
C1427      C1428   1.413       .  A
C1427      C1434   1.504       .  S
C1428      C1429   1.411       .  A
C1428      H1433   1.084       .  S
C1429      C1430   1.413       .  A
C1430      C1431   1.509       .  S
C1431      H1435   1.111       .  S
C1431      H1436   1.108       .  S
C1431      H1437   1.110       .  S
C1434      H1438   1.110       .  S
C1434      H1439   1.110       .  S
C1434      H1440   1.111       .  S
C1441      C1442   1.415       .  A
C1441      C2006   1.410   1_554  A
C1441      H2008   1.083       .  S
C1442      C1443   1.421       .  A
C1443      C1444   1.412   1_554  A
C1443      C1450   1.507       .  S
C1444      C2005   1.409       .  A
C1444      H1449   1.083       .  S
C1445      C2004   1.408       .  A
C1445      C1446   1.413       .  A
C1446      C2001   1.408       .  A
C1446      C1447   1.508       .  S
C1447      H1451   1.111       .  S
C1447      H1452   1.109       .  S
C1447      H1453   1.110       .  S
H1448      C2001   1.083       .  S
C1450      H1454   1.110       .  S
C1450      H1455   1.110       .  S
C1450      H1456   1.111       .  S
C1457      C1458   1.405       .  A
C1457      C1462   1.406       .  A
C1457      H1464   1.084       .  S
C1458      C1459   1.418       .  A
C1459      C1460   1.405       .  A
C1459      C1466   1.509       .  S
C1460      C1461   1.409       .  A
C1460      H1465   1.083       .  S
C1461      C1462   1.421       .  A
C1462      C1463   1.508       .  S
C1463      H1467   1.111       .  S
C1463      H1468   1.110       .  S
C1463      H1469   1.109       .  S
C1466      H1470   1.110       .  S
C1466      H1471   1.110       .  S
C1466      H1472   1.111       .  S
C1473      C1474   1.406       .  A
C1473      C1478   1.403       .  A
C1473      H1480   1.084       .  S
C1474      C1475   1.421       .  A
C1475      C1476   1.407       .  A
C1475      C1482   1.508       .  S
C1476      C1477   1.404       .  A
C1476      H1481   1.084       .  S
C1477      C1478   1.418       .  A
C1478      C1479   1.510       .  S
C1479      H1483   1.111       .  S
C1479      H1484   1.108       .  S
C1479      H1485   1.111       .  S
C1482      H1486   1.110       .  S
C1482      H1487   1.111       .  S
C1482      H1488   1.111       .  S
C1489      C2050   1.415       .  A
C1489      C1494   1.412   1_556  A
C1489      H1496   1.083       .  S
C1490      C2049   1.414       .  A
C1490      C1491   1.418       .  A
C1491      C1498   1.508   1_655  S
C1492      C1493   1.409       .  A
C1492      H2057   1.083       .  S
C1494      C1495   1.507       .  S
C1495      H1499   1.111       .  S
C1495      H1500   1.109       .  S
C1495      H1501   1.110       .  S
H1497      C2052   1.083       .  S
C1498      H1502   1.110   1_455  S
C1498      H1503   1.110   1_455  S
C1505      C1506   1.409       .  A
C1505      C1510   1.405   1_545  A
C1505      H1512   1.083       .  S
C1506      C1507   1.419       .  A
C1507      C1508   1.407   1_545  A
C1507      C1514   1.508       .  S
C1508      C1509   1.407       .  A
C1508      H1513   1.084       .  S
C1509      C1510   1.417       .  A
C1510      C1511   1.508       .  S
C1511      H1515   1.111       .  S
C1511      H1516   1.110       .  S
C1511      H1517   1.110       .  S
C1514      H1518   1.111       .  S
C1514      H1519   1.109       .  S
C1514      H1520   1.111       .  S
C1521      C1522   1.408       .  A
C1521      C1526   1.411       .  A
C1521      H1528   1.084       .  S
C1522      C1523   1.429       .  A
C1523      C1524   1.406       .  A
C1523      C1530   1.511       .  S
C1524      C1525   1.398       .  A
C1524      H1529   1.084       .  S
C1525      C1526   1.419       .  A
C1526      C1527   1.509       .  S
C1527      H1531   1.111       .  S
C1527      H1532   1.109       .  S
C1527      H1533   1.111       .  S
C1530      H1534   1.110       .  S
C1530      H1535   1.109       .  S
C1530      H1536   1.111       .  S
C1537      C1538   1.408       .  A
C1537      C2102   1.397   1_554  A
C1537      H1544   1.084       .  S
C1538      C1539   1.405       .  A
C1539      C2100   1.397   1_554  A
C1539      C1546   1.509       .  S
C1540      C2099   1.398       .  A
C1540      C1541   1.406       .  A
C1540      H1545   1.083       .  S
C1541      C1542   1.404       .  A
C1542      C2097   1.397       .  A
C1542      C1543   1.506       .  S
C1543      H2107   1.107       .  S
C1543      H1548   1.109       .  S
C1543      H1549   1.110       .  S
C1546      H1550   1.109       .  S
C1546      H1551   1.111       .  S
C1546      H2112   1.111   1_554  S
H1547      C2103   1.111       .  S
H1552      C2106   1.111       .  S
C1553      C1554   1.409       .  A
C1553      C1558   1.413       .  A
C1553      H1560   1.084       .  S
C1554      C1555   1.413       .  A
C1555      C1556   1.400       .  A
C1555      C1562   1.511       .  S
C1556      C1557   1.405       .  A
C1556      H1561   1.084       .  S
C1557      C1558   1.411       .  A
C1558      C1559   1.504       .  S
C1559      H1563   1.111       .  S
C1559      H1564   1.110       .  S
C1559      H1565   1.110       .  S
C1562      H1566   1.110       .  S
C1562      H1567   1.108       .  S
C1562      H1568   1.111       .  S
C1569      C1570   1.398       .  A
C1569      H1576   1.085       .  S
C1571      C1572   1.410   1_455  A
C1571      C1578   1.507       .  S
C1572      C1573   1.401       .  A
C1572      H1577   1.084       .  S
C1573      C1574   1.418       .  A
C1574      C1575   1.508       .  S
C1575      H1580   1.109       .  S
C1575      H1581   1.109       .  S
C1578      H1584   1.111       .  S
C1585      C1586   1.403       .  A
C1585      C1590   1.405   1_565  A
C1585      H1592   1.084       .  S
C1586      C1587   1.417       .  A
C1587      C1588   1.403   1_565  A
C1587      C1594   1.509       .  S
C1588      C1589   1.405       .  A
C1588      H1593   1.084       .  S
C1589      C1590   1.421       .  A
C1590      C1591   1.508       .  S
C1591      H1595   1.111       .  S
C1591      H1596   1.110       .  S
C1591      H1597   1.110       .  S
C1594      H1598   1.108       .  S
C1594      H1599   1.110       .  S
C1594      H1600   1.111       .  S
C1601      C1602   1.414       .  A
C1601      C1606   1.408       .  A
C1601      H1608   1.084       .  S
C1602      C1603   1.415       .  A
C1603      C1604   1.407       .  A
C1603      C1610   1.508       .  S
C1604      C1605   1.410       .  A
C1604      H1609   1.084       .  S
C1605      C1606   1.412       .  A
C1606      C1607   1.508       .  S
C1607      H1611   1.111       .  S
C1607      H1612   1.111       .  S
C1607      H1613   1.109       .  S
C1610      H1614   1.109       .  S
C1610      H1615   1.110       .  S
C1610      H1616   1.111       .  S
C1617      C1618   1.406   1_556  A
C1617      C2182   1.398       .  A
C1617      H1624   1.085       .  S
C1618      C1619   1.411       .  A
C1619      C2180   1.395   1_554  A
C1619      C1626   1.508       .  S
C1620      C2179   1.398       .  A
C1620      C1621   1.407       .  A
C1620      H1625   1.085       .  S
C1621      C1622   1.409       .  A
C1622      C2177   1.397       .  A
C1622      C1623   1.508       .  S
C1623      H1627   1.111       .  S
C1623      H1628   1.110       .  S
C1623      H1629   1.110       .  S
C1626      H1630   1.110       .  S
C1626      H1631   1.110       .  S
C1626      H1632   1.111       .  S
C1633      C1634   1.395       .  A
C1633      C1638   1.401       .  A
C1633      H1640   1.085       .  S
C1634      C1635   1.418       .  A
C1635      C1642   1.506       .  S
C1636      C1637   1.404       .  A
C1636      H1641   1.084       .  S
C1638      C1639   1.508   1_655  S
C1639      H1643   1.111   1_455  S
C1639      H1645   1.109       .  S
C1642      H1646   1.110       .  S
C1642      H1647   1.109       .  S
C1642      H1648   1.111       .  S
C1649      C1650   1.408       .  A
C1649      C1654   1.418       .  A
C1649      H1656   1.084       .  S
C1650      C1651   1.417       .  A
C1651      C1652   1.397       .  A
C1651      C1658   1.509       .  S
C1652      C1653   1.401       .  A
C1652      H1657   1.085       .  S
C1653      C1654   1.419       .  A
C1654      C1655   1.506       .  S
C1655      H1659   1.111       .  S
C1655      H1660   1.111       .  S
C1655      H1661   1.110       .  S
C1658      H1662   1.109       .  S
C1658      H1663   1.106       .  S
C1658      H1664   1.109       .  S
C1665      C1666   1.406       .  A
C1665      C2230   1.413       .  A
C1665      H1672   1.083       .  S
C1666      C2227   1.430       .  A
C1667      C2226   1.427   1_554  A
C1667      C1668   1.408       .  A
C1667      C1674   1.511       .  S
C1668      C1669   1.403       .  A
C1668      H1673   1.084       .  S
C1669      C1670   1.424       .  A
C1670      C2225   1.414   1_554  A
C1670      C1671   1.508       .  S
C1671      H2235   1.111   1_554  S
C1671      H1676   1.108       .  S
C1671      H1677   1.111       .  S
C1674      H2238   1.110   1_554  S
C1674      H2239   1.110   1_554  S
C1674      H1680   1.109       .  S
H1675      C2231   1.111       .  S
H1678      C2234   1.109       .  S
H1679      C2234   1.110       .  S
Fe1681     O1697   2.099       .  S
Fe1681     O1687   2.052       .  S
Fe1681     O1694   2.081       .  S
Fe1681     O1686   2.094       .  S
Fe1681     O1692   1.965       .  S
Fe1682     O1685   2.027       .  S
Fe1682     O1689   2.066       .  S
Fe1682     O1693   2.049       .  S
Fe1682     O1698   2.084       .  S
Fe1682     O1692   1.971       .  S
Fe1683     O1701   2.070       .  S
Fe1683     O1688   2.068       .  S
Fe1683     O1695   2.079       .  S
Fe1683     O1684   2.060       .  S
Fe1683     O1692   1.961       .  S
O1684      C1691   1.277       .  A
O1685      C1699   1.262       .  A
O1686      C1691   1.281       .  A
O1687      C1690   1.264       .  A
O1688      C1700   1.272       .  A
O1689      C1702   1.269       .  A
C1690      O1695   1.266       .  A
C1690      C2213   1.480       .  S
C1691      C2162   1.495       .  S
O1693      C1696   1.263       .  A
O1694      C1696   1.269       .  A
C1696      C2146   1.492       .  S
O1697      C1702   1.280       .  A
O1698      C1700   1.274       .  A
C1699      O1701   1.273       .  A
C1699      C2178   1.468       .  S
C1700      C2194   1.503       .  S
C1702      C2229   1.511       .  S
Fe1703     O1719   2.125       .  S
Fe1703     O1709   2.040       .  S
Fe1703     O1716   2.063       .  S
Fe1703     O1708   2.125       .  S
Fe1703     O1714   1.946       .  S
Fe1704     O1707   2.046       .  S
Fe1704     O1711   2.044       .  S
Fe1704     O1715   2.061       .  S
Fe1704     O1720   2.062       .  S
Fe1704     O1714   1.957       .  S
Fe1705     O1723   2.060       .  S
Fe1705     O1710   2.083       .  S
Fe1705     O1717   2.112       .  S
Fe1705     O1706   2.038       .  S
Fe1705     O1714   1.950       .  S
O1706      C1713   1.268       .  A
O1707      C1721   1.267       .  A
O1708      C1713   1.286       .  A
O1709      C1712   1.260       .  A
O1710      C1722   1.274       .  A
O1711      C1724   1.266       .  A
C1712      O1717   1.273       .  A
C1712      C2114   1.489       .  S
C1713      C2082   1.489       .  S
O1715      C1718   1.268       .  A
O1716      C1718   1.267       .  A
C1718      C2069   1.484       .  S
O1719      C1724   1.283       .  A
O1720      C1722   1.270       .  A
C1721      O1723   1.273       .  A
C1721      C2101   1.482       .  S
C1722      C2130   1.486       .  S
C1724      C2226   1.506       .  S
Fe1725     O1741   2.064       .  S
Fe1725     O1731   2.107       .  S
Fe1725     O1738   2.112       .  S
Fe1725     O1730   2.047       .  S
Fe1725     O1736   1.944       .  S
Fe1726     O1729   2.077       .  S
Fe1726     O1733   2.066       .  S
Fe1726     O1737   2.059       .  S
Fe1726     O1742   2.043       .  S
Fe1726     O1736   1.951       .  S
Fe1727     O1745   2.089       .  S
Fe1727     O1732   2.059       .  S
Fe1727     O1739   2.045       .  S
Fe1727     O1728   2.103       .  S
Fe1727     O1736   1.960       .  S
O1728      C1735   1.269       .  A
O1729      C1743   1.270       .  A
O1730      C1735   1.261       .  A
O1731      C1734   1.283       .  A
O1732      C1744   1.274       .  A
O1733      C1746   1.270       .  A
C1734      O1739   1.274       .  A
C1734      C2165   1.487       .  S
C1735      C2133   1.485       .  S
O1737      C1740   1.270       .  A
O1738      C1740   1.280       .  A
C1740      C2050   1.512       .  S
O1741      C1746   1.266       .  A
O1742      C1744   1.269       .  A
C1743      O1745   1.271       .  A
C1743      C2117   1.486       .  S
C1744      C2181   1.458       .  S
C1746      C2034   1.493       .  S
Fe1747     O1763   2.079       .  S
Fe1747     O1753   2.120       .  S
Fe1747     O1760   2.106       .  S
Fe1747     O1752   2.050       .  S
Fe1747     O1758   1.947       .  S
Fe1748     O1751   2.063       .  S
Fe1748     O1755   2.068       .  S
Fe1748     O1759   2.049       .  S
Fe1748     O1764   2.046       .  S
Fe1748     O1758   1.952       .  S
Fe1749     O1767   2.090       .  S
Fe1749     O1754   2.064       .  S
Fe1749     O1761   2.045       .  S
Fe1749     O1750   2.109       .  S
Fe1749     O1758   1.954       .  S
O1750      C1757   1.272       .  A
O1751      C1765   1.272       .  A
O1752      C1757   1.262       .  A
O1753      C1756   1.284       .  A
O1754      C1766   1.272       .  A
O1755      C1768   1.268       .  A
C1756      O1761   1.271       .  A
C1756      C2085   1.488       .  S
C1757      C2197   1.496       .  S
O1759      C1762   1.269       .  A
O1760      C1762   1.278       .  A
C1762      C2053   1.507       .  S
O1763      C1768   1.272       .  A
O1764      C1766   1.266       .  A
C1765      O1767   1.275       .  A
C1765      C2210   1.482       .  S
C1766      C2098   1.458       .  S
C1768      C2021   1.491       .  S
Fe1769     O1785   2.070       .  S
Fe1769     O1775   2.123       .  S
Fe1769     O1782   2.113       .  S
Fe1769     O1774   2.042       .  S
Fe1769     O1780   1.950       .  S
Fe1770     O1773   2.063       .  S
Fe1770     O1777   2.067       .  S
Fe1770     O1781   2.042       .  S
Fe1770     O1786   2.037       .  S
Fe1770     O1780   1.958       .  S
Fe1771     O1789   2.084       .  S
Fe1771     O1776   2.066       .  S
Fe1771     O1783   2.050       .  S
Fe1771     O1772   2.103       .  S
Fe1771     O1780   1.958       .  S
O1772      C1779   1.270       .  A
O1773      C1787   1.271       .  A
O1774      C1779   1.260       .  A
O1775      C1778   1.287       .  A
O1776      C1788   1.274       .  A
O1777      C1790   1.270       .  A
C1778      O1783   1.272       .  A
C1778      C1938   1.504       .  S
C1779      C1986   1.482       .  S
O1781      C1784   1.266       .  A
O1782      C1784   1.279       .  A
C1784      C2002   1.506       .  S
O1785      C1790   1.269       .  A
O1786      C1788   1.265       .  A
C1787      O1789   1.273       .  A
C1787      C1970   1.483       .  S
C1788      C1954   1.456       .  S
C1790      C2149   1.490       .  S
Fe1791     O1807   2.068       .  S
Fe1791     O1797   2.076       .  S
Fe1791     O1804   2.077       .  S
Fe1791     O1796   2.043       .  S
Fe1791     O1802   1.944       .  S
Fe1792     O1795   2.083       .  S
Fe1792     O1799   2.060       .  S
Fe1792     O1803   2.095       .  S
Fe1792     O1808   2.023       .  S
Fe1792     O1802   1.954       .  S
Fe1793     O1811   2.060       .  S
Fe1793     O1798   2.074       .  S
Fe1793     O1805   2.083       .  S
Fe1793     O1794   2.080       .  S
Fe1793     O1802   1.940       .  S
O1794      C1801   1.267       .  A
O1795      C1809   1.273       .  A
O1796      C1801   1.260       .  A
O1797      C1800   1.282       .  A
O1798      C1810   1.273       .  A
O1799      C1812   1.262       .  A
C1800      O1805   1.279       .  A
C1800      C1877   1.497       .  S
C1801      C1906   1.483       .  S
O1803      C1806   1.278       .  A
O1804      C1806   1.276       .  A
C1806      C2005   1.498       .  S
O1807      C1812   1.267       .  A
O1808      C1810   1.262       .  A
C1809      O1811   1.270       .  A
C1809      C1925   1.484       .  S
C1810      C1890   1.459       .  S
C1812      C2066   1.493       .  S
Fe1813     O1829   2.115       .  S
Fe1813     O1819   2.032       .  S
Fe1813     O1826   2.075       .  S
Fe1813     O1818   2.106       .  S
Fe1813     O1824   1.961       .  S
Fe1814     O1817   2.021       .  S
Fe1814     O1821   2.052       .  S
Fe1814     O1825   2.045       .  S
Fe1814     O1830   2.056       .  S
Fe1814     O1824   1.970       .  S
Fe1815     O1833   2.064       .  S
Fe1815     O1820   2.084       .  S
Fe1815     O1827   2.092       .  S
Fe1815     O1816   2.060       .  S
Fe1815     O1824   1.970       .  S
O1816      C1823   1.272       .  A
O1817      C1831   1.258       .  A
O1818      C1823   1.283       .  A
O1819      C1822   1.262       .  A
O1820      C1832   1.275       .  A
O1821      C1834   1.267       .  A
C1822      O1827   1.269       .  A
C1822      C1922   1.490       .  S
C1823      C1941   1.496       .  S
O1825      C1828   1.260       .  A
O1826      C1828   1.267       .  A
C1828      C2037   1.490       .  S
O1829      C1834   1.283       .  A
O1830      C1832   1.271       .  A
C1831      O1833   1.268       .  A
C1831      C1957   1.450       .  S
C1832      C1909   1.474       .  S
C1834      C1858   1.503       .  S
Fe1835     O1851   2.117       .  S
Fe1835     O1841   2.052       .  S
Fe1835     O1848   2.069       .  S
Fe1835     O1840   2.122       .  S
Fe1835     O1846   1.951       .  S
Fe1836     O1839   2.066       .  S
Fe1836     O1843   2.043       .  S
Fe1836     O1847   2.076       .  S
Fe1836     O1852   2.063       .  S
Fe1836     O1846   1.954       .  S
Fe1837     O1855   2.062       .  S
Fe1837     O1842   2.086       .  S
Fe1837     O1849   2.110       .  S
Fe1837     O1838   2.036       .  S
Fe1837     O1846   1.951       .  S
O1838      C1845   1.270       .  A
O1839      C1853   1.271       .  A
O1840      C1845   1.284       .  A
O1841      C1844   1.263       .  A
O1842      C1854   1.272       .  A
O1843      C1856   1.267       .  A
C1844      O1849   1.272       .  A
C1844      C1973   1.488       .  S
C1845      C1874   1.496       .  S
O1847      C1850   1.271       .  A
O1848      C1850   1.268       .  A
C1850      C2018   1.495       .  S
O1851      C1856   1.282       .  A
O1852      C1854   1.270       .  A
C1853      O1855   1.273       .  A
C1853      C1893   1.471       .  S
C1854      C1989   1.486       .  S
C1856      C1861   1.502       .  S
C1857      C1858   1.402       .  A
C1857      H1864   1.084       .  S
C1859      C1860   1.412       .  A
C1859      C1866   1.508       .  S
C1860      H1865   1.084       .  S
C1861      C1862   1.427       .  A
C1862      C1863   1.510       .  S
C1863      H1868   1.109       .  S
C1863      H1869   1.110       .  S
C1866      H1872   1.111       .  S
C1873      C1874   1.411       .  A
C1873      C1878   1.402       .  A
C1873      H1880   1.084       .  S
C1874      C1875   1.414       .  A
C1875      C1876   1.409       .  A
C1875      C1882   1.507       .  S
C1876      C1877   1.414       .  A
C1876      H1881   1.083       .  S
C1877      C1878   1.416       .  A
C1878      C1879   1.509       .  S
C1879      H1883   1.111       .  S
C1879      H1884   1.110       .  S
C1879      H1885   1.110       .  S
C1882      H1886   1.108       .  S
C1882      H1887   1.110       .  S
C1882      H1888   1.111       .  S
C1889      C1890   1.406       .  A
C1889      H1896   1.085       .  S
C1890      C1891   1.404   1_556  A
C1891      C1898   1.508       .  S
C1892      C1893   1.410       .  A
C1892      H1897   1.085       .  S
C1893      C1894   1.408       .  A
C1894      C1895   1.507       .  S
C1895      H1900   1.109       .  S
C1895      H1901   1.110       .  S
C1898      H1902   1.108   1_554  S
C1898      H1903   1.110       .  S
C1905      C1906   1.409       .  A
C1905      C1910   1.400       .  A
C1905      H1912   1.085       .  S
C1906      C1907   1.412       .  A
C1907      C1908   1.408       .  A
C1907      C1914   1.506       .  S
C1908      C1909   1.408       .  A
C1908      H1913   1.084       .  S
C1909      C1910   1.406       .  A
C1910      C1911   1.505       .  S
C1911      H1915   1.111       .  S
C1911      H1916   1.107       .  S
C1911      H1917   1.110       .  S
C1914      H1918   1.111       .  S
C1914      H1919   1.110       .  S
C1914      H1920   1.111       .  S
C1921      C1922   1.403   1_455  A
C1921      H1928   1.084       .  S
C1922      C1923   1.419       .  A
C1923      C1924   1.414   1_655  A
C1923      C1930   1.505       .  S
C1924      H1929   1.084       .  S
C1925      C1926   1.417       .  A
C1926      C1927   1.511       .  S
C1927      H1931   1.110       .  S
C1927      H1932   1.109       .  S
C1927      H1933   1.108       .  S
C1930      H1934   1.111       .  S
C1930      H1935   1.110       .  S
C1930      H1936   1.111       .  S
C1937      C1938   1.408       .  A
C1937      C1942   1.409       .  A
C1937      H1944   1.083       .  S
C1938      C1939   1.425       .  A
C1939      C1940   1.409       .  A
C1939      C1946   1.510       .  S
C1940      C1941   1.403       .  A
C1940      H1945   1.084       .  S
C1941      C1942   1.418       .  A
C1942      C1943   1.506       .  S
C1943      H1947   1.110       .  S
C1943      H1948   1.110       .  S
C1943      H1949   1.108       .  S
C1946      H1950   1.110       .  S
C1946      H1951   1.110       .  S
C1946      H1952   1.111       .  S
C1953      C1954   1.400       .  A
C1953      H1960   1.085       .  S
C1954      C1955   1.413       .  A
C1955      C1962   1.509       .  S
C1956      C1957   1.400       .  A
C1956      H1961   1.085       .  S
C1957      C1958   1.411   1_556  A
C1958      C1959   1.508       .  S
C1959      H1963   1.111       .  S
C1959      H1964   1.107   1_554  S
C1959      H1965   1.110       .  S
C1962      H1966   1.110       .  S
C1962      H1967   1.109       .  S
C1962      H1968   1.111       .  S
C1969      C1970   1.395       .  A
C1969      C1974   1.399   1_655  A
C1969      H1976   1.085       .  S
C1970      C1971   1.421       .  A
C1971      C1978   1.505       .  S
C1972      C1973   1.403       .  A
C1972      H1977   1.084       .  S
C1974      C1975   1.500       .  S
C1975      H1979   1.111       .  S
C1975      H1980   1.109       .  S
C1978      H1982   1.109       .  S
C1978      H1983   1.110       .  S
C1978      H1984   1.111       .  S
C1985      C1986   1.404       .  A
C1985      C1990   1.402       .  A
C1985      H1992   1.084       .  S
C1986      C1987   1.408       .  A
C1987      C1988   1.412       .  A
C1987      C1994   1.504       .  S
C1988      C1989   1.411       .  A
C1988      H1993   1.084       .  S
C1989      C1990   1.413       .  A
C1990      C1991   1.509       .  S
C1991      H1995   1.111       .  S
C1991      H1996   1.108       .  S
C1991      H1997   1.110       .  S
C1994      H1998   1.110       .  S
C1994      H1999   1.110       .  S
C1994      H2000   1.111       .  S
C2001      C2002   1.415       .  A
C2002      C2003   1.419       .  A
C2003      C2004   1.409       .  A
C2003      C2010   1.507       .  S
C2004      H2009   1.083       .  S
C2005      C2006   1.413       .  A
C2006      C2007   1.507       .  S
C2007      H2011   1.111       .  S
C2007      H2012   1.109       .  S
C2007      H2013   1.110       .  S
C2010      H2014   1.110       .  S
C2010      H2015   1.110       .  S
C2010      H2016   1.111       .  S
C2017      C2018   1.406       .  A
C2017      C2022   1.407       .  A
C2017      H2024   1.084       .  S
C2018      C2019   1.421       .  A
C2019      C2020   1.409       .  A
C2019      C2026   1.508       .  S
C2020      C2021   1.405       .  A
C2020      H2025   1.084       .  S
C2021      C2022   1.417       .  A
C2022      C2023   1.508       .  S
C2023      H2027   1.111       .  S
C2023      H2028   1.110       .  S
C2023      H2029   1.108       .  S
C2026      H2030   1.110       .  S
C2026      H2031   1.110       .  S
C2026      H2032   1.111       .  S
C2033      C2034   1.405       .  A
C2033      C2038   1.403       .  A
C2033      H2040   1.084       .  S
C2034      C2035   1.421       .  A
C2035      C2036   1.407       .  A
C2035      C2042   1.508       .  S
C2036      C2037   1.404       .  A
C2036      H2041   1.084       .  S
C2037      C2038   1.419       .  A
C2038      C2039   1.510       .  S
C2039      H2043   1.111       .  S
C2039      H2044   1.108       .  S
C2039      H2045   1.110       .  S
C2042      H2046   1.110       .  S
C2042      H2047   1.110       .  S
C2042      H2048   1.111       .  S
C2049      C2054   1.409       .  A
C2049      H2056   1.083       .  S
C2050      C2051   1.421       .  A
C2051      C2058   1.508       .  S
C2052      C2053   1.413       .  A
C2054      C2055   1.509       .  S
C2055      H2059   1.111       .  S
C2055      H2060   1.110       .  S
C2055      H2061   1.110       .  S
C2058      H2062   1.110       .  S
C2058      H2063   1.110       .  S
C2065      C2066   1.408       .  A
C2065      C2070   1.401   1_545  A
C2065      H2072   1.083       .  S
C2066      C2067   1.419       .  A
C2067      C2068   1.406   1_545  A
C2067      C2074   1.508       .  S
C2068      C2069   1.406       .  A
C2068      H2073   1.084       .  S
C2069      C2070   1.416       .  A
C2070      C2071   1.509       .  S
C2071      H2075   1.111       .  S
C2071      H2076   1.110       .  S
C2071      H2077   1.110       .  S
C2074      H2078   1.111       .  S
C2074      H2079   1.109       .  S
C2074      H2080   1.111       .  S
C2081      C2082   1.405       .  A
C2081      C2086   1.407       .  A
C2081      H2088   1.084       .  S
C2082      C2083   1.420       .  A
C2083      C2084   1.408       .  A
C2083      C2090   1.510       .  S
C2084      C2085   1.405       .  A
C2084      H2089   1.084       .  S
C2085      C2086   1.416       .  A
C2086      C2087   1.507       .  S
C2087      H2091   1.110       .  S
C2087      H2092   1.107       .  S
C2087      H2093   1.110       .  S
C2090      H2094   1.110       .  S
C2090      H2095   1.109       .  S
C2090      H2096   1.111       .  S
C2097      C2098   1.406       .  A
C2097      H2104   1.084       .  S
C2098      C2099   1.405       .  A
C2099      C2106   1.506       .  S
C2100      C2101   1.415       .  A
C2100      H2105   1.082       .  S
C2101      C2102   1.413       .  A
C2102      C2103   1.509       .  S
C2103      H2108   1.110       .  S
C2103      H2109   1.110       .  S
C2106      H2110   1.110       .  S
C2106      H2111   1.111       .  S
C2113      C2114   1.411       .  A
C2113      C2118   1.415       .  A
C2113      H2120   1.084       .  S
C2114      C2115   1.415       .  A
C2115      C2116   1.404       .  A
C2115      C2122   1.510       .  S
C2116      C2117   1.404       .  A
C2116      H2121   1.085       .  S
C2117      C2118   1.411       .  A
C2118      C2119   1.504       .  S
C2119      H2123   1.111       .  S
C2119      H2124   1.110       .  S
C2119      H2125   1.111       .  S
C2122      H2126   1.110       .  S
C2122      H2127   1.109       .  S
C2122      H2128   1.111       .  S
C2129      C2130   1.399       .  A
C2129      H2136   1.085       .  S
C2131      C2132   1.413       .  A
C2131      C2138   1.506   1_655  S
C2132      C2133   1.403       .  A
C2132      H2137   1.084       .  S
C2133      C2134   1.418       .  A
C2134      C2135   1.507       .  S
C2135      H2140   1.107       .  S
C2135      H2141   1.109       .  S
C2138      H2144   1.111   1_455  S
C2145      C2146   1.406       .  A
C2145      C2150   1.408   1_565  A
C2145      H2152   1.084       .  S
C2146      C2147   1.419       .  A
C2147      C2148   1.405   1_565  A
C2147      C2154   1.509       .  S
C2148      C2149   1.404       .  A
C2148      H2153   1.084       .  S
C2149      C2150   1.419       .  A
C2150      C2151   1.508       .  S
C2151      H2155   1.111       .  S
C2151      H2156   1.110       .  S
C2151      H2157   1.110       .  S
C2154      H2158   1.108       .  S
C2154      H2159   1.110       .  S
C2154      H2160   1.111       .  S
C2161      C2162   1.412       .  A
C2161      C2166   1.406       .  A
C2161      H2168   1.084       .  S
C2162      C2163   1.416       .  A
C2163      C2164   1.405       .  A
C2163      C2170   1.508       .  S
C2164      C2165   1.409       .  A
C2164      H2169   1.084       .  S
C2165      C2166   1.412       .  A
C2166      C2167   1.508       .  S
C2167      H2171   1.111       .  S
C2167      H2172   1.111       .  S
C2167      H2173   1.109       .  S
C2170      H2174   1.109       .  S
C2170      H2175   1.110       .  S
C2170      H2176   1.111       .  S
C2177      C2178   1.407       .  A
C2177      H2184   1.082       .  S
C2178      C2179   1.409       .  A
C2179      C2186   1.508       .  S
C2180      C2181   1.402       .  A
C2180      H2185   1.085   1_556  S
C2181      C2182   1.409       .  A
C2182      C2183   1.508       .  S
C2183      H2187   1.111       .  S
C2183      H2188   1.110       .  S
C2183      H2189   1.110       .  S
C2186      H2190   1.110       .  S
C2186      H2191   1.111       .  S
C2186      H2192   1.111       .  S
C2193      C2194   1.405       .  A
C2193      C2198   1.400       .  A
C2193      H2200   1.084       .  S
C2194      C2195   1.423       .  A
C2195      C2202   1.506       .  S
C2196      C2197   1.408       .  A
C2196      H2201   1.084       .  S
C2198      C2199   1.511       .  S
C2199      H2203   1.111       .  S
C2199      H2205   1.110       .  S
C2202      H2206   1.110       .  S
C2202      H2207   1.110       .  S
C2202      H2208   1.111       .  S
C2209      C2210   1.411       .  A
C2209      C2214   1.413       .  A
C2209      H2216   1.084       .  S
C2210      C2211   1.410       .  A
C2211      C2212   1.402       .  A
C2211      C2218   1.506       .  S
C2212      C2213   1.404       .  A
C2212      H2217   1.085       .  S
C2213      C2214   1.409       .  A
C2214      C2215   1.505       .  S
C2215      H2219   1.111       .  S
C2215      H2220   1.110       .  S
C2215      H2221   1.109       .  S
C2218      H2222   1.111       .  S
C2218      H2223   1.109       .  S
C2218      H2224   1.111       .  S
C2225      C2226   1.405       .  A
C2225      H2232   1.084       .  S
C2227      C2228   1.409       .  A
C2227      C2234   1.512       .  S
C2228      C2229   1.405       .  A
C2228      H2233   1.083       .  S
C2229      C2230   1.426       .  A
C2230      C2231   1.507       .  S
C2231      H2236   1.107       .  S
C2231      H2237   1.110       .  S
C2234      H2240   1.111       .  S
