geometry optimzed in LAMMPS
_audit_creation_date              2020-12-01 
_audit_creation_method            'lammps2cif' 
_symmetry_space_group_name_H-M    'P1' 
_symmetry_Int_Tables_number       1 
_symmetry_cell_setting            triclinic 
loop_ 
_symmetry_equiv_pos_as_xyz 
  x,y,z 
_cell_length_a                    54.43959643 
_cell_length_b                    26.887041414513355 
_cell_length_c                    28.936305391715205 
_cell_angle_alpha                 89.49044881343336 
_cell_angle_beta                  118.4806077529745 
_cell_angle_gamma                 90.32877900127895 
loop_ 
_atom_site_label 
_atom_site_type_symbol 
_atom_site_fract_x 
_atom_site_fract_y 
_atom_site_fract_z 
_atom_site_charge 
Fe1        Fe  0.10254801  0.41575508  0.42964003     1.65800
Fe2        Fe  0.11960877  0.31923113  0.37988067     1.73200
Fe3        Fe  0.06006322  0.38146593  0.30573621     1.54400
O4          O  0.03755056  0.40638297  0.34433628    -0.82000
O5          O  0.12348477  0.34357349  0.31694065    -0.80300
O6          O  0.06703312  0.39235288  0.42866384    -0.84500
O7          O  0.08159229  0.47705823  0.38060096    -0.79300
O8          O  0.04724873  0.30982252  0.30818843    -0.81100
O9          O  0.15510757  0.36350607  0.42767521    -0.83800
C10         C  0.07191769  0.48654618  0.33162966     0.96900
C11         C  0.04315008  0.40440831  0.39261517     1.04400
O12         O  0.09428344  0.37251214  0.37107873    -1.12800
O13         O  0.11549274  0.29162390  0.44179374    -0.75200
O14         O  0.12326212  0.36101738  0.48724389    -0.78700
O15         O  0.07101033  0.45339409  0.29998035    -0.79400
C16         C  0.11949720  0.31416803  0.48288816     0.95800
O17         O  0.13886757  0.43833422  0.43214805    -0.77400
O18         O  0.08733297  0.26937580  0.33258208    -0.82600
C19         C  0.10375218  0.34742733  0.27027481     0.98500
C20         C  0.06072356  0.27011432  0.31267259     1.04400
O21         O  0.07875155  0.35808353  0.26008889    -0.78200
C22         C  0.15876228  0.41016932  0.43793522     1.02700
Fe23       Fe  0.10212129  0.07193500  0.93428627     1.65800
Fe24       Fe  0.11801882  0.16757921  0.87954244     1.73200
Fe25       Fe  0.05777055  0.10592043  0.81061190     1.54400
O26         O  0.06893677  0.03475415  0.80484611    -0.82000
O27         O  0.08495429  0.21713206  0.83340939    -0.80300
O28         O  0.08041384  0.01080826  0.88630546    -0.84500
O29         O  0.06710601  0.09532919  0.93536398    -0.79300
O30         O  0.07400574  0.13126898  0.76099323    -0.81100
O31         O  0.11678045  0.19574743  0.94387392    -0.83800
C32         C  0.04293338  0.08323747  0.90043055     0.96900
C33         C  0.07032584  0.00150178  0.83730829     1.04400
O34         O  0.09285312  0.11498756  0.87442463    -1.12800
O35         O  0.15388110  0.12268357  0.92457254    -0.75200
O36         O  0.13794859  0.04896151  0.93477842    -0.78700
O37         O  0.03675880  0.08020059  0.85199105    -0.79400
C38         C  0.15743588  0.07607037  0.93604149     0.95800
O39         O  0.12369885  0.12670738  0.99087325    -0.77400
O40         O  0.11932204  0.14282093  0.81463390    -0.82600
C41         C  0.05841748  0.21601189  0.81537509     0.98500
C42         C  0.09861205  0.14211064  0.76889881     1.04400
O43         O  0.04530068  0.17659209  0.81427484    -0.78200
C44         C  0.12117039  0.17377397  0.98591774     1.02700
Fe45       Fe  0.39760546  0.57320633  0.54461134     1.65800
Fe46       Fe  0.38369628  0.66707407  0.60335705     1.73200
Fe47       Fe  0.44498289  0.60839170  0.66474655     1.54400
O48         O  0.43549610  0.53660380  0.67430709    -0.82000
O49         O  0.41677743  0.71687244  0.64707313    -0.80300
O50         O  0.42040595  0.51214569  0.59180999    -0.84500
O51         O  0.43117612  0.59670901  0.53728386    -0.79300
O52         O  0.43143627  0.63325608  0.71792635    -0.81100
O53         O  0.38267799  0.69709865  0.53718556    -0.83800
C54         C  0.45583746  0.58526127  0.57064898     0.96900
C55         C  0.43215606  0.50302053  0.64122456     1.04400
O56         O  0.40852398  0.61583482  0.60456858    -1.12800
O57         O  0.34774284  0.62239597  0.56083586    -0.75200
O58         O  0.36335341  0.54938437  0.54966381    -0.78700
O59         O  0.46351875  0.58315769  0.61976315    -0.79400
C60         C  0.34418253  0.57598015  0.54966381     0.95800
O61         O  0.37450714  0.62852438  0.48986640    -0.77400
O62         O  0.38528240  0.63977365  0.67079187    -0.82600
C63         C  0.44265737  0.71773722  0.65927054     0.98500
C64         C  0.40746979  0.64092998  0.71453966     1.04400
O65         O  0.45537447  0.67973544  0.65596832    -0.78200
C66         C  0.37760297  0.67546563  0.49488933     1.02700
Fe67       Fe  0.39850310  0.91661201  0.04698040     1.65800
Fe68       Fe  0.38065641  0.81498065  0.09148652     1.73200
Fe69       Fe  0.44125136  0.87525346  0.16863750     1.54400
O70         O  0.46399101  0.90160689  0.13102686    -0.82000
O71         O  0.37821981  0.83204592  0.15775322    -0.80300
O72         O  0.43380584  0.89550612  0.04579704    -0.84500
O73         O  0.42049638  0.97481816  0.09894300    -0.79300
O74         O  0.45296911  0.80473570  0.16247193    -0.81100
O75         O  0.34536495  0.86161310  0.04879776    -0.83800
C76         C  0.43174244  0.98142799  0.14853124     0.96900
C77         C  0.45828092  0.90234664  0.08275043     1.04400
O78         O  0.40655269  0.86917840  0.10308124    -1.12800
O79         O  0.38296788  0.79305251  0.02577292    -0.75200
O80         O  0.37751446  0.86608271  0.98612507    -0.78700
O81         O  0.43216415  0.94690185  0.17897092    -0.79400
C82         C  0.38027199  0.81916081  0.98710007     0.95800
O83         O  0.36209777  0.93708204  0.04610535    -0.77400
O84         O  0.41273040  0.76323964  0.13429614    -0.82600
C85         C  0.39818866  0.83614873  0.20423818     0.98500
C86         C  0.43938415  0.76472066  0.15580606     1.04400
O87         O  0.42282147  0.84910193  0.21386779    -0.78200
C88         C  0.34209778  0.90875055  0.04065461     1.02700
C89         C  0.44018653  0.76830026  0.91200566    -0.18100
C90         C  0.44480652  0.74016500  0.87640709    -0.20300
C91         C  0.42320769  0.71137297  0.83814074     0.20400
C92         C  0.39665241  0.71112337  0.83566988    -0.03200
C93         C  0.39196573  0.73957692  0.87155847    -0.06300
C94         C  0.41387801  0.76817545  0.90992958     0.20700
C95         C  0.36541119  0.73918790  0.86922902     0.18800
C96         C  0.34375049  0.71088858  0.83054788    -0.17700
C97         C  0.34831313  0.68313125  0.79465289    -0.20000
C98         C  0.37466069  0.68295831  0.79693306     0.20300
C99         C  0.37909272  0.65650293  0.75999684    -0.33000
C100        C  0.40519427  0.65793021  0.76093719     0.01000
C101        C  0.42741036  0.68422904  0.80120738    -0.24300
C102        C  0.40918482  0.79544925  0.94606111    -0.28900
C103        C  0.38302049  0.79458790  0.94452904     0.06700
C104        C  0.36114551  0.76651125  0.90606975    -0.27600
H105        H  0.45723044  0.79007342  0.94127343     0.11400
H106        H  0.46525510  0.74107169  0.87868374     0.12500
H107        H  0.32324480  0.71023620  0.82802229     0.11600
H108        H  0.33116773  0.66189532  0.76493013     0.10800
H109        H  0.36181502  0.63654922  0.72897948     0.16200
H110        H  0.44746464  0.68617452  0.80184667     0.12100
H111        H  0.42614021  0.81607614  0.97673586     0.15000
H112        H  0.34107137  0.76541795  0.90540524     0.14800
C113        C  0.33933773  0.71568290  0.30601136    -0.18100
C114        C  0.34208005  0.73959894  0.26560082    -0.20300
C115        C  0.36496691  0.77098110  0.27714969     0.20400
C116        C  0.38488375  0.77957667  0.32989786    -0.03200
C117        C  0.38183952  0.75613898  0.37075076    -0.06300
C118        C  0.35925548  0.72321118  0.35867558     0.20700
C119        C  0.40181323  0.76453972  0.42356247     0.18800
C120        C  0.42453840  0.79634026  0.43510342    -0.17700
C121        C  0.42781168  0.81884754  0.39455756    -0.20000
C122        C  0.40825523  0.81037382  0.34178628     0.20300
C123        C  0.41209760  0.83079431  0.30073617    -0.33000
C124        C  0.39263664  0.82132448  0.24796668     0.01000
C125        C  0.36874977  0.79244252  0.23673607    -0.24300
C126        C  0.35741552  0.69745434  0.39937051    -0.28900
C127        C  0.37737245  0.70552074  0.45191047     0.06700
C128        C  0.39913837  0.73986130  0.46380630    -0.27600
H129        H  0.32180462  0.69083358  0.29603287     0.11400
H130        H  0.32659497  0.73268895  0.22519491     0.12500
H131        H  0.44008242  0.80306911  0.47551053     0.11600
H132        H  0.44582418  0.84243887  0.40448099     0.10800
H133        H  0.43053779  0.85293438  0.30985259     0.16200
H134        H  0.35366486  0.78442247  0.19631463     0.12100
H135        H  0.34068412  0.67091406  0.39029841     0.15000
H136        H  0.41480017  0.74548083  0.50442407     0.14800
C137        C  0.27972073  0.05542202  0.97358332    -0.18100
C138        C  0.25422530  0.07910453  0.95938500    -0.20300
C139        C  0.23248001  0.05366175  0.96253209     0.20400
C140        C  0.23651965  0.00358305  0.97983402    -0.03200
C141        C  0.26230291  0.97956142  0.99408351    -0.06300
C142        C  0.28399979  0.00576523  0.99113530     0.20700
C143        C  0.26638793  0.92949708  0.01143001     0.18800
C144        C  0.24455629  0.90394712  0.01423610    -0.17700
C145        C  0.21906663  0.92771004  0.00019461    -0.20000
C146        C  0.21485217  0.97752164  0.98301885     0.20300
C147        C  0.18936477  0.00164496  0.96898695    -0.33000
C148        C  0.18501283  0.05177365  0.95172525     0.01000
C149        C  0.20683704  0.07742419  0.94868294    -0.24300
C150        C  0.30965992  0.98207937  0.00600392    -0.28900
C151        C  0.31418969  0.93218491  0.02374249     0.06700
C152        C  0.29222547  0.90604984  0.02592975    -0.27600
H153        H  0.29616687  0.07607349  0.97095663     0.11400
H154        H  0.25155535  0.11744933  0.94608129     0.12500
H155        H  0.24720982  0.86556616  0.02743150     0.11600
H156        H  0.20262165  0.90707350  0.00284424     0.10800
H157        H  0.17286364  0.98113185  0.97158592     0.16200
H158        H  0.20384213  0.11575847  0.93524905     0.12100
H159        H  0.32619457  0.00278808  0.00372308     0.15000
H160        H  0.29533573  0.86777247  0.03956075     0.14800
C161        C  0.02624918  0.06561971  0.05047863    -0.18100
C162        C  0.01875683  0.03487113  0.08097304    -0.20300
C163        C  0.50462833  0.98996488  0.06059097     0.20400
C164        C  0.49822952  0.97570931  0.00910696    -0.03200
C165        C  0.00534585  0.00709433  0.97807033    -0.06300
C166        C  0.01958759  0.05204897  0.99904902     0.20700
C167        C  0.99851693  0.99319346  0.92628652     0.18800
C168        C  0.48427826  0.94839833  0.90583878    -0.17700
C169        C  0.47730992  0.91716268  0.93668486    -0.20000
C170        C  0.48413792  0.93062695  0.98820110     0.20300
C171        C  0.47534821  0.90150972  0.01777308    -0.33000
C172        C  0.47891462  0.91819460  0.06652607     0.01000
C173        C  0.49508365  0.96077799  0.08928022    -0.24300
C174        C  0.02831391  0.08124800  0.96932405    -0.28900
C175        C  0.02379298  0.06533112  0.91961476     0.06700
C176        C  0.00747766  0.02284357  0.89702719    -0.27600
H177        H  0.03733924  0.09996260  0.06718224     0.11400
H178        H  0.02375883  0.04645701  0.12027817     0.12500
H179        H  0.47869754  0.93738355  0.86610938     0.11600
H180        H  0.46617788  0.88285806  0.91994473     0.10800
H181        H  0.46306930  0.86847936  0.00039544     0.16200
H182        H  0.49756482  0.97410523  0.12654236     0.12100
H183        H  0.04086872  0.11415324  0.98680842     0.15000
H184        H  0.00424259  0.01010545  0.85906750     0.14800
C185        C  0.50756577  0.84778920  0.66195546    -0.18100
C186        C  0.52689425  0.88553818  0.68854374    -0.20300
C187        C  0.03261496  0.89943708  0.73937677     0.20400
C188        C  0.01874447  0.87503933  0.76371849    -0.03200
C189        C  0.49872380  0.83777052  0.73638010    -0.06300
C190        C  0.49328669  0.82381684  0.68539641     0.20700
C191        C  0.98420938  0.81443781  0.76009521     0.18800
C192        C  0.99029063  0.82769750  0.81127701    -0.17700
C193        C  0.01044068  0.86405595  0.83864378    -0.20000
C194        C  0.02453847  0.88839190  0.81502678     0.20300
C195        C  0.04356541  0.92700643  0.84104189    -0.33000
C196        C  0.05636145  0.95327997  0.81589374     0.01000
C197        C  0.05123857  0.93841721  0.76552866    -0.24300
C198        C  0.47400144  0.78563742  0.65918605    -0.28900
C199        C  0.45944568  0.76258431  0.68260571     0.06700
C200        C  0.46429757  0.77756007  0.73262428    -0.27600
H201        H  0.50363822  0.83758013  0.62287353     0.11400
H202        H  0.53734224  0.90396334  0.66927892     0.12500
H203        H  0.97951829  0.80983746  0.83022417     0.11600
H204        H  0.01482122  0.87347599  0.87816266     0.10800
H205        H  0.04694331  0.93875940  0.87939057     0.16200
H206        H  0.06090151  0.95859566  0.74577827     0.12100
H207        H  0.47052398  0.77334964  0.62092798     0.15000
H208        H  0.45351683  0.75879225  0.75108655     0.14800
C209        C  0.00596713  0.32228670  0.65947030    -0.18100
C210        C  0.98629194  0.35980432  0.63327285    -0.20300
C211        C  0.47436274  0.38616518  0.65930326     0.20400
C212        C  0.48206452  0.37398630  0.71205981    -0.03200
C213        C  0.00191861  0.33613665  0.73851507    -0.06300
C214        C  0.01409022  0.31044370  0.71219501     0.20700
C215        C  0.00966048  0.32417516  0.79136983     0.18800
C216        C  0.49752115  0.35012901  0.81719893    -0.17700
C217        C  0.47819131  0.38806457  0.79126528    -0.20000
C218        C  0.47045500  0.40042183  0.73887971     0.20300
C219        C  0.45218136  0.44006706  0.71364767    -0.33000
C220        C  0.44538507  0.45406015  0.66196173     0.01000
C221        C  0.45583018  0.42583595  0.63436879    -0.24300
C222        C  0.03392755  0.27305312  0.73894882    -0.28900
C223        C  0.04147075  0.26075218  0.79136235     0.06700
C224        C  0.02917680  0.28615098  0.81726244    -0.27600
H225        H  0.01497552  0.30274023  0.63857029     0.11400
H226        H  0.98067637  0.36863913  0.59282723     0.12500
H227        H  0.50317940  0.34139610  0.85767958     0.11600
H228        H  0.46947209  0.40808740  0.81238894     0.10800
H229        H  0.44426247  0.46162879  0.73518825     0.16200
H230        H  0.45108344  0.43679804  0.59482553     0.12100
H231        H  0.04284021  0.25230866  0.71856828     0.15000
H232        H  0.03451088  0.27569454  0.85723869     0.14800
C233        C  0.15241003  0.28033106  0.67141960    -0.18100
C234        C  0.14984415  0.25457637  0.71104127    -0.20300
C235        C  0.12909691  0.21809136  0.69829345     0.20400
C236        C  0.11121622  0.20628829  0.64531795    -0.03200
C237        C  0.11421516  0.23156756  0.60529671    -0.06300
C238        C  0.13453674  0.26951326  0.61843775     0.22700
C239        C  0.09648990  0.21970581  0.55220224     0.18800
C240        C  0.07603910  0.18258719  0.53959040    -0.17700
C241        C  0.07264525  0.15834216  0.57927251    -0.20000
C242        C  0.08991485  0.17025548  0.63231708     0.20300
C243        C  0.08589370  0.14786768  0.67250500    -0.33000
C244        C  0.10355655  0.16010540  0.72542984     0.01000
C245        C  0.12545399  0.19440266  0.73774371    -0.24300
C246        C  0.13633164  0.29651416  0.57841088    -0.28900
C247        C  0.11871101  0.28490629  0.52552180     0.06700
C248        C  0.09916866  0.24592203  0.51269480    -0.27600
H249        H  0.16823105  0.30901076  0.68222374     0.11400
H250        H  0.16373887  0.26392968  0.75169871     0.12500
H251        H  0.06229776  0.17297464  0.49893753     0.11600
H252        H  0.05633884  0.13060206  0.56842382     0.10800
H253        H  0.06898822  0.12156763  0.66268825     0.16200
H254        H  0.13897293  0.20475632  0.77829054     0.12100
H255        H  0.15146286  0.32635012  0.58830196     0.15000
H256        H  0.08533467  0.23723551  0.47177332     0.14800
C257        C  0.15902234  0.24634005  0.21334844    -0.18100
C258        C  0.16069867  0.21895681  0.17404374    -0.20300
C259        C  0.14070241  0.22545027  0.12111075     0.20400
C260        C  0.11926103  0.26103299  0.10766894    -0.03200
C261        C  0.11717569  0.28778717  0.14745002    -0.06300
C262        C  0.13702027  0.27999265  0.20048228     0.20700
C263        C  0.09461681  0.32078043  0.13428046     0.18800
C264        C  0.07530071  0.32883783  0.08120965    -0.17700
C265        C  0.07777720  0.30333079  0.04168683    -0.20000
C266        C  0.09936754  0.26876790  0.05460343     0.20300
C267        C  0.10100699  0.24098162  0.01543959    -0.33000
C268        C  0.12161489  0.20421100  0.02856034     0.01000
C269        C  0.14142689  0.19649536  0.08147321    -0.24300
C270        C  0.13369224  0.30383991  0.23993786    -0.28900
C271        C  0.11001743  0.33354423  0.22748137     0.06700
C272        C  0.09101874  0.34313566  0.17442303    -0.27600
H273        H  0.17446551  0.24004751  0.25400785     0.11400
H274        H  0.17744088  0.19224962  0.18511954     0.12500
H275        H  0.05797991  0.35421714  0.07028911     0.11600
H276        H  0.06237942  0.30973211  0.00102714     0.10800
H277        H  0.08554719  0.24665069  0.97462503     0.16200
H278        H  0.15740614  0.16836118  0.09159437     0.12100
H279        H  0.14855526  0.29606139  0.28066591     0.15000
H280        H  0.07288296  0.36621818  0.16443516     0.14800
C281        C  0.00784260  0.12569313  0.32751747    -0.18100
C282        C  0.98857592  0.08700426  0.30376171    -0.20300
C283        C  0.47783457  0.07693538  0.24995769     0.20400
C284        C  0.48701759  0.10571872  0.22008267    -0.03200
C285        C  0.00673382  0.14442218  0.24421350    -0.06300
C286        C  0.01696751  0.15485222  0.29809038     0.20700
C287        C  0.51595315  0.17302243  0.21424698     0.18800
C288        C  0.50571492  0.16227851  0.16077815    -0.17700
C289        C  0.48620221  0.12407954  0.13694368    -0.20000
C290        C  0.47655021  0.09584048  0.16609748     0.20300
C291        C  0.45701761  0.05736499  0.14235183    -0.33000
C292        C  0.44802942  0.02772978  0.17189149     0.01000
C293        C  0.45850808  0.03809617  0.22577299    -0.24300
C294        C  0.03564909  0.19484527  0.32116598    -0.28900
C295        C  0.04437332  0.22406149  0.29108574     0.06700
C296        C  0.03471871  0.21258613  0.23791007    -0.27600
H297        H  0.01552665  0.13295069  0.36892940     0.11400
H298        H  0.98193821  0.06509632  0.32745818     0.12500
H299        H  0.51264580  0.18369884  0.13723989     0.11600
H300        H  0.47861942  0.11666488  0.09558594     0.10800
H301        H  0.44977835  0.04910212  0.10125542     0.16200
H302        H  0.45216316  0.01512908  0.24923715     0.12100
H303        H  0.04286907  0.20405679  0.36204947     0.15000
H304        H  0.04119951  0.23552474  0.21461278     0.14800
C305        C  0.01704901  0.62856660  0.33884426    -0.18100
C306        C  0.99618733  0.66410274  0.31243799    -0.20300
C307        C  0.48617777  0.67345952  0.25864185     0.20400
C308        C  0.49751935  0.64721144  0.23121607    -0.03200
C309        C  0.01866102  0.61144336  0.25794206    -0.06300
C310        C  0.02827460  0.60173885  0.31190013     0.20700
C311        C  0.02970698  0.58463382  0.23040158     0.18800
C312        C  0.02001566  0.59462045  0.17675738    -0.17700
C313        C  0.49927334  0.63039585  0.15039514    -0.20000
C314        C  0.48776407  0.65674550  0.17712559     0.20300
C315        C  0.46714775  0.69319682  0.15113733    -0.33000
C316        C  0.45604045  0.71959161  0.17854753     0.01000
C317        C  0.46544436  0.70932274  0.23202048    -0.24300
C318        C  0.04796924  0.56384327  0.33737245    -0.28900
C319        C  0.05779842  0.53477361  0.30934824     0.06700
C320        C  0.04930471  0.54677901  0.25633103    -0.27600
H321        H  0.02412546  0.62156112  0.38021088     0.11400
H322        H  0.98778049  0.68413210  0.33410227     0.12500
H323        H  0.02826842  0.57432618  0.15501684     0.11600
H324        H  0.49214018  0.63730519  0.10898893     0.10800
H325        H  0.46043266  0.70227355  0.11026091     0.16200
H326        H  0.45740779  0.73089945  0.25339230     0.12100
H327        H  0.05408180  0.55473457  0.37799144     0.15000
H328        H  0.05673601  0.52475059  0.23432383     0.14800
C329        C  0.25697392  0.40464095  0.47106297    -0.18100
C330        C  0.28263189  0.42822727  0.48604232    -0.20300
C331        C  0.28693340  0.47764470  0.50357534     0.20400
C332        C  0.26527687  0.50349273  0.50644953    -0.03200
C333        C  0.23931307  0.47970762  0.49112570    -0.06300
C334        C  0.23510521  0.43008434  0.47316456     0.20700
C335        C  0.21750044  0.50577835  0.49322173     0.18800
C336        C  0.22192578  0.55500011  0.51139248    -0.17700
C337        C  0.24767354  0.57846744  0.52677627    -0.20000
C338        C  0.26945147  0.55320817  0.52412435     0.20300
C339        C  0.29520311  0.57687383  0.53842526    -0.33000
C340        C  0.31687427  0.55147060  0.53522444     0.01000
C341        C  0.31246710  0.50167986  0.51793534    -0.24300
C342        C  0.20902662  0.40701610  0.45690486    -0.28900
C343        C  0.18692559  0.43311365  0.45773974     0.06700
C344        C  0.19153955  0.48242878  0.47651080    -0.27600
H345        H  0.25416640  0.36658736  0.45742779     0.11400
H346        H  0.29910408  0.40783347  0.48368041     0.12500
H347        H  0.20538343  0.57550903  0.51338922     0.11600
H348        H  0.25047526  0.61653656  0.54036707     0.10800
H349        H  0.29831803  0.61502282  0.55187872     0.16200
H350        H  0.32889674  0.48145212  0.51522869     0.12100
H351        H  0.20578864  0.36914945  0.44261161     0.15000
H352        H  0.17481724  0.50299484  0.47782943     0.14800
C353        C  0.01589619  0.45261525  0.56857034    -0.18100
C354        C  0.02427343  0.42246413  0.53956680    -0.20300
C355        C  0.01816163  0.43610887  0.48825343     0.20400
C356        C  0.00358240  0.48057494  0.46584999    -0.03200
C357        C  0.49505172  0.51090715  0.49510516    -0.06300
C358        C  0.00112096  0.49669565  0.54656576     0.20700
C359        C  0.47989902  0.55483968  0.47235132     0.18800
C360        C  0.47424251  0.56888113  0.42136317    -0.17700
C361        C  0.48329592  0.53934992  0.39284938    -0.20000
C362        C  0.49784399  0.49497632  0.41460037     0.20300
C363        C  0.00786088  0.46599177  0.38697692    -0.33000
C364        C  0.02372714  0.42314087  0.41042948     0.01000
C365        C  0.02757372  0.40724241  0.45994969    -0.24300
C366        C  0.49108464  0.52537126  0.57417470    -0.28900
C367        C  0.47413427  0.56691481  0.55009275     0.06700
C368        C  0.46950426  0.58254809  0.50001274    -0.27600
H369        H  0.02065827  0.44114205  0.60795572     0.11400
H370        H  0.03568550  0.38857433  0.55740154     0.12500
H371        H  0.46265788  0.60258284  0.40339080     0.11600
H372        H  0.47886369  0.55115372  0.35373847     0.10800
H373        H  0.50542693  0.47902698  0.34949774     0.16200
H374        H  0.04002071  0.37438566  0.47838196     0.12100
H375        H  0.99425087  0.51269120  0.61228032     0.15000
H376        H  0.45630670  0.61453311  0.48127191     0.14800
Fe377      Fe  0.60255180  0.41572798  0.42966360     1.65800
Fe378      Fe  0.61961404  0.31921730  0.37988916     1.73200
Fe379      Fe  0.56006066  0.38143246  0.30576837     1.54400
O380        O  0.53755340  0.40635341  0.34437653    -0.82000
O381        O  0.62348328  0.34357973  0.31694883    -0.80300
O382        O  0.56704072  0.39231681  0.42869819    -0.84500
O383        O  0.58159015  0.47703102  0.38062253    -0.79300
O384        O  0.54725586  0.30978831  0.30824524    -0.81100
O385        O  0.65511160  0.36349040  0.42769092    -0.83800
C386        C  0.57190980  0.48651524  0.33164816     0.96900
C387        C  0.54315745  0.40438002  0.39265746     1.04400
O388        O  0.59428626  0.37248940  0.37110081    -1.12800
O389        O  0.61550350  0.29159525  0.44180162    -0.75200
O390        O  0.62326974  0.36098462  0.48725960    -0.78700
O391        O  0.57100045  0.45336122  0.29999855    -0.79400
C392        C  0.61950893  0.31413387  0.48289972     0.95800
O393        O  0.63886951  0.43831514  0.43216690    -0.77400
O394        O  0.58734003  0.26936206  0.33258208    -0.82600
C395        C  0.60374468  0.34740969  0.27028641     0.98500
C396        C  0.56073196  0.27008897  0.31269995     1.04400
O397        O  0.57874316  0.35804641  0.26011094    -0.78200
C398        C  0.65876567  0.41015221  0.43795741     1.02700
Fe399      Fe  0.60211394  0.07193347  0.93427884     1.65800
Fe400      Fe  0.61801499  0.16758110  0.87954656     1.73200
Fe401      Fe  0.55777142  0.10591297  0.81059878     1.54400
O402        O  0.56894293  0.03474926  0.80484406    -0.82000
O403        O  0.58495014  0.21713132  0.83340672    -0.80300
O404        O  0.58040797  0.01080754  0.88629772    -0.84500
O405        O  0.56709547  0.09532563  0.93534654    -0.79300
O406        O  0.57401345  0.13125511  0.76099049    -0.81100
O407        O  0.61677108  0.19574635  0.94387426    -0.83800
C408        C  0.54292353  0.08323797  0.90040520     0.96900
C409        C  0.57032463  0.00149972  0.83730225     1.04400
O410        O  0.59284899  0.11498714  0.87441969    -1.12800
O411        O  0.65387672  0.12268743  0.92458269    -0.75200
O412        O  0.63794187  0.04896218  0.93477383    -0.78700
O413        O  0.53675399  0.08019818  0.85196837    -0.79400
C414        C  0.65743012  0.07607263  0.93604347     0.95800
O415        O  0.62369110  0.12670349  0.99087000    -0.77400
O416        O  0.61932660  0.14282382  0.81464635    -0.82600
C417        C  0.55841235  0.21600477  0.81535900     0.98500
C418        C  0.59862131  0.14209782  0.76890651     1.04400
O419        O  0.54529594  0.17658163  0.81424768    -0.78200
C420        C  0.62116249  0.17377011  0.98591764     1.02700
Fe421      Fe  0.89759666  0.57320787  0.54460649     1.65800
Fe422      Fe  0.88369270  0.66707931  0.60335529     1.73200
Fe423      Fe  0.94498066  0.60840210  0.66473236     1.54400
O424        O  0.93549590  0.53661613  0.67430297    -0.82000
O425        O  0.91677610  0.71688073  0.64706305    -0.80300
O426        O  0.92040425  0.51215089  0.59180800    -0.84500
O427        O  0.93116113  0.59671231  0.53726085    -0.79300
O428        O  0.93143894  0.63327360  0.71792177    -0.81100
O429        O  0.88266654  0.69709937  0.53717662    -0.83800
C430        C  0.95582312  0.58526065  0.57061816     0.96900
C431        C  0.93215844  0.50303076  0.64122426     1.04400
O432        O  0.90851938  0.61584137  0.60456118    -1.12800
O433        O  0.84773899  0.62239670  0.56084655    -0.75200
O434        O  0.86335088  0.54938454  0.54967923    -0.78700
O435        O  0.96350983  0.58316137  0.61973552    -0.79400
C436        C  0.84418072  0.57597852  0.54968428     0.95800
O437        O  0.87449215  0.62852275  0.48985936    -0.77400
O438        O  0.88528454  0.63978135  0.67079445    -0.82600
C439        C  0.94265561  0.71774531  0.65925492     0.98500
C440        C  0.90747280  0.64094465  0.71453967     1.04400
O441        O  0.95537026  0.67974402  0.65594404    -0.78200
C442        C  0.87758715  0.67546480  0.49487891     1.02700
Fe443      Fe  0.89849821  0.91662075  0.04699523     1.65800
Fe444      Fe  0.88064749  0.81498125  0.09148273     1.73200
Fe445      Fe  0.94124516  0.87524629  0.16864640     1.54400
O446        O  0.96398762  0.90160378  0.13104263    -0.82000
O447        O  0.87821025  0.83204108  0.15774933    -0.80300
O448        O  0.93380202  0.89552460  0.04581057    -0.84500
O449        O  0.92049039  0.97482134  0.09896873    -0.79300
O450        O  0.95295869  0.80472960  0.16246695    -0.81100
O451        O  0.84535703  0.86161475  0.04879854    -0.83800
C452        C  0.93174021  0.98142540  0.14855864     0.96900
C453        C  0.95827777  0.90235415  0.08276645     1.04400
O454        O  0.90654629  0.86917903  0.10308759    -1.12800
O455        O  0.88295767  0.79305999  0.02576536    -0.75200
O456        O  0.87751182  0.86609623  0.98613073    -0.78700
O457        O  0.93216464  0.94689455  0.17899595    -0.79400
C458        C  0.88026411  0.81917293  0.98709673     0.95800
O459        O  0.86209230  0.93708470  0.04612123    -0.77400
O460        O  0.91271917  0.76323563  0.13428656    -0.82600
C461        C  0.89817742  0.83614395  0.20423569     0.98500
C462        C  0.93937274  0.76471502  0.15579465     1.04400
O463        O  0.92281178  0.84909244  0.21387038    -0.78200
C464        C  0.84209137  0.90875296  0.04066440     1.02700
C465        C  0.94017761  0.76833359  0.91199278    -0.18100
C466        C  0.94480002  0.74019861  0.87639693    -0.20300
C467        C  0.92320388  0.71139998  0.83813347     0.20400
C468        C  0.89664856  0.71114414  0.83566287    -0.03200
C469        C  0.89195955  0.73959682  0.87154983    -0.06300
C470        C  0.91386941  0.76820174  0.90991794     0.20700
C471        C  0.86540555  0.73919981  0.86922276     0.18800
C472        C  0.84374704  0.71089514  0.83054311    -0.17700
C473        C  0.84831175  0.68313950  0.79464909    -0.20000
C474        C  0.87465942  0.68297269  0.79692892     0.20300
C475        C  0.87909423  0.65651629  0.75999595    -0.33000
C476        C  0.90519619  0.65794823  0.76093649     0.01000
C477        C  0.92740950  0.68425472  0.80120364    -0.24300
C478        C  0.90917458  0.79547376  0.94604867    -0.28900
C479        C  0.88301154  0.79460357  0.94452146     0.06700
C480        C  0.86113860  0.76652000  0.90606475    -0.27600
H481        H  0.95721984  0.79011111  0.94125879     0.11400
H482        H  0.96524866  0.74110997  0.87867408     0.12500
H483        H  0.82324155  0.71023685  0.82801828     0.11600
H484        H  0.83116801  0.66189911  0.76492809     0.10800
H485        H  0.86181821  0.63655723  0.72898105     0.16200
H486        H  0.94746383  0.68620415  0.80184353     0.12100
H487        H  0.92612860  0.81610542  0.97672124     0.15000
H488        H  0.84106522  0.76541919  0.90540299     0.14800
C489        C  0.83932375  0.71566947  0.30599555    -0.18100
C490        C  0.84206655  0.73958657  0.26558589    -0.20300
C491        C  0.86494982  0.77097892  0.27713700     0.20400
C492        C  0.88486101  0.77958684  0.32988600    -0.03200
C493        C  0.88181599  0.75614841  0.37073762    -0.06300
C494        C  0.85923723  0.72320713  0.35866088     0.20700
C495        C  0.90178479  0.76456016  0.42354994     0.18800
C496        C  0.92450472  0.79637477  0.43509322    -0.17700
C497        C  0.92777910  0.81888244  0.39454893    -0.20000
C498        C  0.90822882  0.81039511  0.34177697     0.20300
C499        C  0.91207471  0.83081104  0.30072920    -0.33000
C500        C  0.89262062  0.82132591  0.24795958     0.01000
C501        C  0.86873567  0.79243665  0.23672537    -0.24300
C502        C  0.85739910  0.69744566  0.39935567    -0.28900
C503        C  0.87735245  0.70552106  0.45189650     0.06700
C504        C  0.89911149  0.73987720  0.46379275    -0.27600
H505        H  0.82179427  0.69081076  0.29601554     0.11400
H506        H  0.82658552  0.73266790  0.22517922     0.12500
H507        H  0.94004460  0.80311277  0.47550116     0.11600
H508        H  0.94578833  0.84248322  0.40447423     0.10800
H509        H  0.93051270  0.85295860  0.30984785     0.16200
H510        H  0.85365565  0.78440637  0.19630357     0.12100
H511        H  0.84067236  0.67089487  0.39028280     0.15000
H512        H  0.91477026  0.74550516  0.50441103     0.14800
C513        C  0.77972302  0.05543619  0.97362986    -0.18100
C514        C  0.75422713  0.07911826  0.95942775    -0.20300
C515        C  0.73247767  0.05366972  0.96255432     0.20400
C516        C  0.73651372  0.00358605  0.97984010    -0.03200
C517        C  0.76229739  0.97956496  0.99409336    -0.06300
C518        C  0.78399818  0.00577419  0.99116476     0.20700
C519        C  0.76637889  0.92949573  0.01142402     0.18800
C520        C  0.74454347  0.90394076  0.01421156    -0.17700
C521        C  0.71905327  0.92770312  0.00016609    -0.20000
C522        C  0.71484231  0.97751924  0.98300544     0.20300
C523        C  0.68935470  0.00164208  0.96897079    -0.33000
C524        C  0.68500657  0.05177578  0.95172632     0.01000
C525        C  0.70683428  0.07743159  0.94870189    -0.24300
C526        C  0.80965815  0.98208815  0.00603465    -0.28900
C527        C  0.81418405  0.93218827  0.02375518     0.06700
C528        C  0.79221658  0.90604849  0.02592564    -0.27600
H529        H  0.79617245  0.07609188  0.97101901     0.11400
H530        H  0.75156009  0.11746712  0.94613723     0.12500
H531        H  0.74719434  0.86555612  0.02739503     0.11600
H532        H  0.70260522  0.90706277  0.00280093     0.10800
H533        H  0.67285061  0.98112478  0.97155507     0.16200
H534        H  0.70384211  0.11576988  0.93528099     0.12100
H535        H  0.82619560  0.00280092  0.00376799     0.15000
H536        H  0.79532405  0.86776697  0.03954347     0.14800
C537        C  0.52622189  0.06564335  0.05043001    -0.18100
C538        C  0.51873537  0.03489107  0.08092988    -0.20300
C539        C  0.00464175  0.98995282  0.06062600     0.20400
C540        C  0.99824125  0.97570163  0.00913981    -0.03200
C541        C  0.50532952  0.00710420  0.97803277    -0.06300
C542        C  0.51956419  0.05206629  0.99900418     0.20700
C543        C  0.49850484  0.99319677  0.92625292     0.18800
C544        C  0.98428444  0.94840129  0.90586587    -0.17700
C545        C  0.97731198  0.91716764  0.93670739    -0.20000
C546        C  0.98414192  0.93062720  0.98822571     0.20300
C547        C  0.97534663  0.90151429  0.01779167    -0.33000
C548        C  0.97891423  0.91819626  0.06654622     0.01000
C549        C  0.99509027  0.96077122  0.08930851    -0.24300
C550        C  0.52829012  0.08126450  0.96927840    -0.28900
C551        C  0.52377697  0.06533839  0.91957722     0.06700
C552        C  0.50746575  0.02284575  0.89699318    -0.27600
H553        H  0.53730629  0.09999217  0.06712790     0.11400
H554        H  0.52373674  0.04647893  0.12023401     0.12500
H555        H  0.97870157  0.93739041  0.86613437     0.11600
H556        H  0.96617444  0.88286885  0.91996139     0.10800
H557        H  0.96306274  0.86848983  0.00040798     0.16200
H558        H  0.99757255  0.97409664  0.12657198     0.12100
H559        H  0.54084119  0.11417442  0.98675892     0.15000
H560        H  0.50423595  0.01010172  0.85903878     0.14800
C561        C  0.00757967  0.84778137  0.66196612    -0.18100
C562        C  0.02690923  0.88552790  0.68855847    -0.20300
C563        C  0.53260303  0.89944610  0.73936405     0.20400
C564        C  0.51873516  0.87504747  0.76371032    -0.03200
C565        C  0.99873227  0.83776416  0.73638425    -0.06300
C566        C  0.99329664  0.82381196  0.68540103     0.20700
C567        C  0.48420441  0.81444175  0.76009678     0.18800
C568        C  0.49028742  0.82770234  0.81127919    -0.17700
C569        C  0.51043739  0.86406158  0.83864255    -0.20000
C570        C  0.52453238  0.88839843  0.81502073     0.20300
C571        C  0.54356100  0.92701035  0.84103475    -0.33000
C572        C  0.55635583  0.95328272  0.81588397     0.01000
C573        C  0.55122843  0.93842383  0.76551509    -0.24300
C574        C  0.97400815  0.78563813  0.65918422    -0.28900
C575        C  0.95944747  0.76258895  0.68259663     0.06700
C576        C  0.96429965  0.77756151  0.73261659    -0.27600
H577        H  0.00365373  0.83757301  0.62288496     0.11400
H578        H  0.03735956  0.90395173  0.66929735     0.12500
H579        H  0.47951768  0.80984050  0.83023047     0.11600
H580        H  0.51482091  0.87348011  0.87816344     0.10800
H581        H  0.54694215  0.93876100  0.87938617     0.16200
H582        H  0.56089006  0.95860208  0.74576220     0.12100
H583        H  0.97053157  0.77335213  0.62092623     0.15000
H584        H  0.95351604  0.75879615  0.75107461     0.14800
C585        C  0.50594245  0.32225501  0.65944385    -0.18100
C586        C  0.48626679  0.35977234  0.63324874    -0.20300
C587        C  0.97438303  0.38619268  0.65932157     0.20400
C588        C  0.98208101  0.37401105  0.71207589    -0.03200
C589        C  0.50190330  0.33611358  0.73849710    -0.06300
C590        C  0.51407143  0.31041824  0.71217227     0.20700
C591        C  0.50965120  0.32415836  0.79135581     0.18800
C592        C  0.99752801  0.35014523  0.81720905    -0.17700
C593        C  0.97819982  0.38808295  0.79127404    -0.20000
C594        C  0.97046714  0.40044272  0.73889054     0.20300
C595        C  0.95219101  0.44008420  0.71365423    -0.33000
C596        C  0.94539537  0.45407645  0.66196819     0.01000
C597        C  0.95584748  0.42585910  0.63438227    -0.24300
C598        C  0.53391231  0.27303313  0.73892615    -0.28900
C599        C  0.54146347  0.26074178  0.79134525     0.06700
C600        C  0.52917189  0.28614090  0.81724923    -0.27600
H601        H  0.51494789  0.30270606  0.63854016     0.11400
H602        H  0.48064830  0.36860536  0.59280133     0.12500
H603        H  0.00318218  0.34140875  0.85768708     0.11600
H604        H  0.96947774  0.40810354  0.81239416     0.10800
H605        H  0.94426782  0.46164179  0.73519037     0.16200
H606        H  0.95110232  0.43682185  0.59484006     0.12100
H607        H  0.54282233  0.25228642  0.71854243     0.15000
H608        H  0.53451101  0.27568939  0.85722912     0.14800
C609        C  0.65242131  0.28030783  0.67143061    -0.18100
C610        C  0.64985602  0.25455417  0.71105306    -0.20300
C611        C  0.62911451  0.21805840  0.69830644     0.20400
C612        C  0.61124100  0.20623985  0.64533237    -0.03200
C613        C  0.61424006  0.23151730  0.60531080    -0.06300
C614        C  0.63455369  0.26947718  0.61844988     0.22700
C615        C  0.59652114  0.21964235  0.55221759     0.18800
C616        C  0.57607797  0.18250952  0.53960765    -0.17700
C617        C  0.57268339  0.15826661  0.57928994    -0.20000
C618        C  0.58994498  0.17019635  0.63233272     0.20300
C619        C  0.58591950  0.14781768  0.67251940    -0.33000
C620        C  0.60357335  0.16007524  0.72544192     0.01000
C621        C  0.62546841  0.19437739  0.73775597    -0.24300
C622        C  0.63634521  0.29648127  0.57842193    -0.28900
C623        C  0.61872935  0.28486338  0.52553406     0.06700
C624        C  0.59919687  0.24586241  0.51270917    -0.27600
H625        H  0.66823653  0.30899808  0.68223307     0.11400
H626        H  0.66374532  0.26391875  0.75170963     0.12500
H627        H  0.56234191  0.17288623  0.49895580     0.11600
H628        H  0.55638167  0.13051730  0.56844250     0.10800
H629        H  0.56901673  0.12151163  0.66270319     0.16200
H630        H  0.63898118  0.20474414  0.77830108     0.12100
H631        H  0.65146922  0.32632949  0.58831130     0.15000
H632        H  0.58536673  0.23716736  0.47178839     0.14800
C633        C  0.65903010  0.24637404  0.21334440    -0.18100
C634        C  0.66070913  0.21899526  0.17403927    -0.20300
C635        C  0.64070245  0.22546373  0.12110907     0.20400
C636        C  0.61924784  0.26101829  0.10767021    -0.03200
C637        C  0.61716078  0.28776840  0.14745190    -0.06300
C638        C  0.63701581  0.27999812  0.20048197     0.20700
C639        C  0.59459069  0.32073394  0.13428560     0.18800
C640        C  0.57526346  0.32876735  0.08121709    -0.17700
C641        C  0.57774076  0.30326426  0.04169346    -0.20000
C642        C  0.59934346  0.26872928  0.05460732     0.20300
C643        C  0.60098474  0.24094715  0.01544327    -0.33000
C644        C  0.62160563  0.20420302  0.02856138     0.01000
C645        C  0.64142934  0.19651131  0.08147157    -0.24300
C646        C  0.63368751  0.30384231  0.23993952    -0.28900
C647        C  0.61000433  0.33352212  0.22748720     0.06700
C648        C  0.59099408  0.34308758  0.17442994    -0.27600
H649        H  0.67448175  0.24010073  0.25400179     0.11400
H650        H  0.67746164  0.19231058  0.18511286     0.12500
H651        H  0.55793379  0.35412514  0.07029935     0.11600
H652        H  0.56233455  0.30964678  0.00103578     0.10800
H653        H  0.58551678  0.24659801  0.97463100     0.16200
H654        H  0.65741900  0.16839800  0.09159029     0.12100
H655        H  0.64855907  0.29608288  0.28066710     0.15000
H656        H  0.57285136  0.36614993  0.16444514     0.14800
C657        C  0.50780071  0.12572722  0.32748724    -0.18100
C658        C  0.48853295  0.08704283  0.30372092    -0.20300
C659        C  0.97785430  0.07691739  0.24998842     0.20400
C660        C  0.98701286  0.10572692  0.22009230    -0.03200
C661        C  0.50674085  0.14440766  0.24421585    -0.06300
C662        C  0.51695041  0.15485956  0.29808148     0.20700
C663        C  0.01592005  0.17306443  0.21422177     0.18800
C664        C  0.00566075  0.16233886  0.16074346    -0.17700
C665        C  0.98615205  0.12413173  0.13692199    -0.20000
C666        C  0.97652358  0.09586830  0.16609762     0.20300
C667        C  0.95699295  0.05738806  0.14236278    -0.33000
C668        C  0.94802755  0.02772796  0.17192080     0.01000
C669        C  0.95852875  0.03807359  0.22581319    -0.24300
C670        C  0.53563260  0.19484870  0.32116648    -0.28900
C671        C  0.54438428  0.22403575  0.29110965     0.06700
C672        C  0.53475537  0.21253705  0.23794718    -0.27600
H673        H  0.51546632  0.13300214  0.36889053     0.11400
H674        H  0.48187586  0.06515499  0.32740082     0.12500
H675        H  0.01257247  0.18377917  0.13718815     0.11600
H676        H  0.97855354  0.11673051  0.09555699     0.10800
H677        H  0.94973659  0.04914279  0.10125711     0.16200
H678        H  0.95220248  0.01508723  0.24929215     0.12100
H679        H  0.54283274  0.20407936  0.36203904     0.15000
H680        H  0.54125631  0.23545566  0.21466674     0.14800
C681        C  0.51705494  0.62856636  0.33886454    -0.18100
C682        C  0.49619964  0.66411416  0.31246060    -0.20300
C683        C  0.98616745  0.67345303  0.25862083     0.20400
C684        C  0.99751759  0.64722251  0.23119899    -0.03200
C685        C  0.51865711  0.61142191  0.25795725    -0.06300
C686        C  0.52827296  0.60172282  0.31191715     0.20700
C687        C  0.52969568  0.58459804  0.23041334     0.18800
C688        C  0.52000140  0.59457729  0.17676685    -0.17700
C689        C  0.99928276  0.63043098  0.15038427    -0.20000
C690        C  0.98776522  0.65676386  0.17711083     0.20300
C691        C  0.96714405  0.69320714  0.15112185    -0.33000
C692        C  0.95602846  0.71958474  0.17852863     0.01000
C693        C  0.96542831  0.70930602  0.23199805    -0.24300
C694        C  0.54796346  0.56381995  0.33738881    -0.28900
C695        C  0.55778810  0.53474115  0.30936316     0.06700
C696        C  0.54929032  0.54673888  0.25634252    -0.27600
H697        H  0.52413304  0.62156571  0.38023251     0.11400
H698        H  0.48779912  0.68415627  0.33412789     0.12500
H699        H  0.52824831  0.57427150  0.15502360     0.11600
H700        H  0.99215203  0.63734656  0.10897992     0.10800
H701        H  0.96043217  0.70229260  0.11024856     0.16200
H702        H  0.95738566  0.73087071  0.25336769     0.12100
H703        H  0.55407826  0.55471646  0.37800985     0.15000
H704        H  0.55671722  0.52470309  0.23433322     0.14800
C705        C  0.75698563  0.40461789  0.47113485    -0.18100
C706        C  0.78264317  0.42820608  0.48611513    -0.20300
C707        C  0.78694121  0.47762730  0.50363637     0.20400
C708        C  0.76528272  0.50347553  0.50650336    -0.03200
C709        C  0.73931939  0.47968836  0.49117888    -0.06300
C710        C  0.73511398  0.43006310  0.47322394     0.20700
C711        C  0.71750415  0.50576009  0.49326441     0.18800
C712        C  0.72192737  0.55498341  0.51143048    -0.17700
C713        C  0.74767462  0.57845295  0.52681455    -0.20000
C714        C  0.76945424  0.55319431  0.52416795     0.20300
C715        C  0.79520384  0.57686477  0.53846067    -0.33000
C716        C  0.81687585  0.55146288  0.53526146     0.01000
C717        C  0.81247273  0.50166699  0.51798833    -0.24300
C718        C  0.70903443  0.40699559  0.45695499    -0.28900
C719        C  0.68693002  0.43309570  0.45777447     0.06700
C720        C  0.69154236  0.48241098  0.47654482    -0.27600
H721        H  0.75418025  0.36656223  0.45750607     0.11400
H722        H  0.79911723  0.40781162  0.48376042     0.12500
H723        H  0.70538326  0.57549268  0.51342053     0.11600
H724        H  0.75047414  0.61652417  0.54039881     0.10800
H725        H  0.79831596  0.61501711  0.55190365     0.16200
H726        H  0.82890342  0.48143925  0.51528522     0.12100
H727        H  0.70579826  0.36912786  0.44266507     0.15000
H728        H  0.67481779  0.50297821  0.47785382     0.14800
C729        C  0.51592017  0.45262632  0.56862884    -0.18100
C730        C  0.52429605  0.42247047  0.53962663    -0.20300
C731        C  0.51818412  0.43611104  0.48831208     0.20400
C732        C  0.50360818  0.48057975  0.46590781    -0.03200
C733        C  0.99502393  0.51089703  0.49504850    -0.06300
C734        C  0.50114677  0.49670787  0.54662185     0.20700
C735        C  0.97986974  0.55482866  0.47229728     0.18800
C736        C  0.97421152  0.56887232  0.42130851    -0.17700
C737        C  0.98326718  0.53934686  0.39279386    -0.20000
C738        C  0.99781898  0.49497619  0.41454414     0.20300
C739        C  0.50787998  0.46598237  0.38703053    -0.33000
C740        C  0.52374171  0.42312702  0.41048189     0.01000
C741        C  0.52759134  0.40723604  0.46000634    -0.24300
C742        C  0.99106159  0.52535843  0.57412408    -0.28900
C743        C  0.97411277  0.56690515  0.55004841     0.06700
C744        C  0.96947776  0.58253661  0.49996422    -0.27600
H745        H  0.52068020  0.44115428  0.60801354     0.11400
H746        H  0.53570571  0.38857878  0.55746206     0.12500
H747        H  0.96262540  0.60257305  0.40333757     0.11600
H748        H  0.97883509  0.55115418  0.35368404     0.10800
H749        H  0.00540949  0.47904181  0.34944707     0.16200
H750        H  0.54003555  0.37437653  0.47843819     0.12100
H751        H  0.49427090  0.51270411  0.61232905     0.15000
H752        H  0.95628052  0.61452271  0.48122667     0.14800
loop_ 
_geom_bond_atom_site_label_1 
_geom_bond_atom_site_label_2 
_geom_bond_distance 
_geom_bond_site_symmetry_2 
_ccdc_geom_bond_type 
Fe1          O17   2.033       .  S
Fe1           O7   2.114       .  S
Fe1          O14   2.097       .  S
Fe1           O6   2.017       .  S
Fe1          O12   1.931       .  S
Fe2           O5   2.033       .  S
Fe2           O9   2.126       .  S
Fe2          O13   2.042       .  S
Fe2          O18   2.114       .  S
Fe2          O12   1.923       .  S
Fe3          O21   2.116       .  S
Fe3           O8   2.057       .  S
Fe3          O15   2.049       .  S
Fe3           O4   2.128       .  S
Fe3          O12   1.934       .  S
O4           C11   1.281       .  A
O5           C19   1.266       .  A
O6           C11   1.261       .  A
O7           C10   1.278       .  A
O8           C20   1.269       .  A
O9           C22   1.284       .  A
C10          O15   1.267       .  A
C10         C319   1.487       .  S
C11         C364   1.472       .  S
O13          C16   1.262       .  A
O14          C16   1.273       .  A
C16         C247   1.475       .  S
O17          C22   1.268       .  A
O18          C20   1.279       .  A
C19          O21   1.281       .  A
C19         C271   1.484       .  S
C20         C295   1.479       .  S
C22         C343   1.489       .  S
Fe23         O39   2.102       .  S
Fe23         O29   2.025       .  S
Fe23         O36   2.043       .  S
Fe23         O28   2.116       .  S
Fe23         O34   1.932       .  S
Fe24         O27   2.122       .  S
Fe24         O31   2.047       .  S
Fe24         O35   2.131       .  S
Fe24         O40   2.031       .  S
Fe24         O34   1.920       .  S
Fe25         O43   2.042       .  S
Fe25         O30   2.120       .  S
Fe25         O37   2.122       .  S
Fe25         O26   2.043       .  S
Fe25         O34   1.938       .  S
O26          C33   1.267       .  A
O27          C41   1.281       .  A
O28          C33   1.279       .  A
O29          C32   1.262       .  A
O30          C42   1.279       .  A
O31          C44   1.264       .  A
C32          O37   1.279       .  A
C32         C175   1.472       .  S
C33         C196   1.482   1_545  S
O35          C38   1.285       .  A
O36          C38   1.270       .  A
C38         C148   1.498       .  S
O39          C44   1.273       .  A
O40          C42   1.265       .  A
C41          O43   1.267       .  A
C41         C223   1.472       .  S
C42         C244   1.483       .  S
C44         C268   1.477   1_556  S
Fe45         O61   2.093       .  S
Fe45         O51   2.034       .  S
Fe45         O58   2.038       .  S
Fe45         O50   2.114       .  S
Fe45         O56   1.929       .  S
Fe46         O49   2.113       .  S
Fe46         O53   2.048       .  S
Fe46         O57   2.119       .  S
Fe46         O62   2.042       .  S
Fe46         O56   1.924       .  S
Fe47         O65   2.045       .  S
Fe47         O52   2.113       .  S
Fe47         O59   2.109       .  S
Fe47         O48   2.046       .  S
Fe47         O56   1.927       .  S
O48          C55   1.270       .  A
O49          C63   1.279       .  A
O50          C55   1.280       .  A
O51          C54   1.262       .  A
O52          C64   1.279       .  A
O53          C66   1.265       .  A
C54          O59   1.277       .  A
C54         C367   1.471       .  S
C55         C220   1.482       .  S
O57          C60   1.282       .  A
O58          C60   1.269       .  A
C60         C340   1.490       .  S
O61          C66   1.273       .  A
O62          C64   1.267       .  A
C63          O65   1.267       .  A
C63         C199   1.469       .  S
C64         C100   1.482       .  S
C66         C127   1.472       .  S
Fe67         O83   2.048       .  S
Fe67         O73   2.109       .  S
Fe67         O80   2.088   1_554  S
Fe67         O72   2.023       .  S
Fe67         O78   1.935       .  S
Fe68         O71   2.041       .  S
Fe68         O75   2.127       .  S
Fe68         O79   2.056       .  S
Fe68         O84   2.110       .  S
Fe68         O78   1.938       .  S
Fe69         O87   2.108       .  S
Fe69         O74   2.040       .  S
Fe69         O81   2.051       .  S
Fe69         O70   2.117       .  S
Fe69         O78   1.944       .  S
O70          C77   1.278       .  A
O71          C85   1.269       .  A
O72          C77   1.263       .  A
O73          C76   1.277       .  A
O74          C86   1.265       .  A
O75          C88   1.285       .  A
C76          O81   1.267       .  A
C76         C292   1.491   1_565  S
C77         C172   1.469       .  S
O79          C82   1.264   1_554  A
O80          C82   1.270       .  A
C82         C103   1.472       .  S
O83          C88   1.273       .  A
O84          C86   1.278       .  A
C85          O87   1.280       .  A
C85         C124   1.485       .  S
C86         C316   1.469       .  S
C88         C151   1.497       .  S
C89          C90   1.400       .  A
C89          C94   1.405       .  A
C89         H105   1.084       .  S
C90          C91   1.404       .  A
C90         H106   1.083       .  S
C91         C101   1.406       .  A
C91          C92   1.413       .  A
C92          C98   1.410       .  A
C92          C93   1.413       .  A
C93          C95   1.415       .  A
C93          C94   1.410       .  A
C94         C102   1.402       .  A
C95         C104   1.408       .  A
C95          C96   1.403       .  A
C96          C97   1.400       .  A
C96         H107   1.083       .  S
C97          C98   1.404       .  A
C97         H108   1.083       .  S
C98          C99   1.403       .  A
C99         C100   1.408       .  A
C99         H109   1.084       .  S
C100        C101   1.408       .  A
C101        H110   1.084       .  S
C102        C103   1.404       .  A
C102        H111   1.081       .  S
C103        C104   1.403       .  A
C104        H112   1.084       .  S
C113        C114   1.398       .  A
C113        C118   1.402       .  A
C113        H129   1.084       .  S
C114        C115   1.404       .  A
C114        H130   1.084       .  S
C115        C125   1.400       .  A
C115        C116   1.408       .  A
C116        C122   1.414       .  A
C116        C117   1.412       .  A
C117        C119   1.410       .  A
C117        C118   1.414       .  A
C118        C126   1.405       .  A
C119        C128   1.402       .  A
C119        C120   1.404       .  A
C120        C121   1.400       .  A
C120        H131   1.084       .  S
C121        C122   1.404       .  A
C121        H132   1.083       .  S
C122        C123   1.407       .  A
C123        C124   1.407       .  A
C123        H133   1.084       .  S
C124        C125   1.411       .  A
C125        H134   1.084       .  S
C126        C127   1.402       .  A
C126        H135   1.084       .  S
C127        C128   1.407       .  A
C128        H136   1.085       .  S
C137        C138   1.401       .  A
C137        C142   1.405       .  A
C137        H153   1.084       .  S
C138        C139   1.404       .  A
C138        H154   1.083       .  S
C139        C149   1.411       .  A
C139        C140   1.414       .  A
C140        C146   1.409   1_545  A
C140        C141   1.418   1_545  A
C141        C143   1.414   1_556  A
C141        C142   1.409   1_565  A
C142        C150   1.405   1_546  A
C143        C152   1.412       .  A
C143        C144   1.405       .  A
C144        C145   1.402       .  A
C144        H155   1.083       .  S
C145        C146   1.406   1_554  A
C145        H156   1.084       .  S
C146        C147   1.407   1_565  A
C147        C148   1.415       .  A
C147        H157   1.084   1_545  S
C148        C149   1.409       .  A
C149        H158   1.084       .  S
C150        C151   1.412       .  A
C150        H159   1.084   1_565  S
C151        C152   1.410       .  A
C152        H160   1.084       .  S
C161        C162   1.398       .  A
C161        C166   1.405   1_554  A
C161        H177   1.084       .  S
C162        C539   1.402   1_545  A
C162        H178   1.084       .  S
C163        C173   1.404       .  A
C163        C164   1.415       .  A
C163        C538   1.402   1_565  A
C164        C170   1.408   1_554  A
C164        C541   1.409   1_564  A
C165        C167   1.414   1_445  A
C165        C166   1.409       .  A
C165        C540   1.409   1_446  A
C166        C174   1.398       .  A
C167        C176   1.403   1_665  A
C167        C544   1.402       .  A
C168        C169   1.397       .  A
C168        C543   1.402       .  A
C168        H179   1.083       .  S
C169        C170   1.404       .  A
C169        H180   1.084       .  S
C170        C171   1.396   1_556  A
C171        C172   1.406       .  A
C171        H181   1.081       .  S
C172        C173   1.403       .  A
C173        H182   1.085       .  S
C174        C175   1.409       .  A
C174        H183   1.085       .  S
C175        C176   1.403       .  A
C176        H184   1.085       .  S
C185        C186   1.400       .  A
C185        C190   1.403       .  A
C185        H201   1.084       .  S
C186        C563   1.404       .  A
C186        H202   1.083       .  S
C187        C197   1.403       .  A
C187        C188   1.411       .  A
C187        C562   1.404       .  A
C188        C194   1.412       .  A
C188        C565   1.413   1_455  A
C189        C190   1.413       .  A
C189        C564   1.413       .  A
C189        C567   1.412       .  A
C190        C198   1.405       .  A
C191        C192   1.404       .  A
C191        C565   1.412       .  A
C191        C576   1.404       .  A
C192        C193   1.400   1_655  A
C192        H203   1.083       .  S
C193        C194   1.404       .  A
C193        H204   1.083       .  S
C194        C195   1.405       .  A
C195        C196   1.408       .  A
C195        H205   1.084       .  S
C196        C197   1.408       .  A
C197        H206   1.084       .  S
C198        C199   1.404       .  A
C198        H207   1.085       .  S
C199        C200   1.404       .  A
C200        C567   1.403       .  A
C200        H208   1.084       .  S
C209        C210   1.401   1_455  A
C209        C214   1.405       .  A
C209        H225   1.083       .  S
C210        C587   1.405       .  A
C210        H226   1.084       .  S
C211        C221   1.407       .  A
C211        C212   1.413       .  A
C211        C586   1.405       .  A
C212        C218   1.411       .  A
C212        C589   1.414       .  A
C213        C215   1.414       .  A
C213        C214   1.411       .  A
C213        C588   1.414   1_455  A
C214        C222   1.406       .  A
C215        C224   1.405       .  A
C215        C592   1.403   1_455  A
C216        C217   1.399       .  A
C216        C591   1.403       .  A
C216        H227   1.083       .  S
C217        C218   1.403       .  A
C217        H228   1.084       .  S
C218        C219   1.402       .  A
C219        C220   1.407       .  A
C219        H229   1.084       .  S
C220        C221   1.409       .  A
C221        H230   1.084       .  S
C222        C223   1.406       .  A
C222        H231   1.085       .  S
C223        C224   1.403       .  A
C224        H232   1.085       .  S
C233        C234   1.397       .  A
C233        C238   1.401       .  A
C233        H249   1.084       .  S
C234        C235   1.404       .  A
C234        H250   1.083       .  S
C235        C245   1.396       .  A
C235        C236   1.407       .  A
C236        C242   1.415       .  A
C236        C237   1.412       .  A
C237        C239   1.409       .  A
C237        C238   1.415       .  A
C238        C246   1.404       .  A
C239        C248   1.403       .  A
C239        C240   1.405       .  A
C240        C241   1.402       .  A
C240        H251   1.084       .  S
C241        C242   1.404       .  A
C241        H252   1.083       .  S
C242        C243   1.411       .  A
C243        C244   1.407       .  A
C243        H253   1.084       .  S
C244        C245   1.409       .  A
C245        H254   1.084       .  S
C246        C247   1.402       .  A
C246        H255   1.084       .  S
C247        C248   1.409       .  A
C248        H256   1.085       .  S
C257        C258   1.399       .  A
C257        C262   1.405       .  A
C257        H273   1.084       .  S
C258        C259   1.403       .  A
C258        H274   1.083       .  S
C259        C269   1.408       .  A
C259        C260   1.415       .  A
C260        C266   1.409       .  A
C260        C261   1.413       .  A
C261        C263   1.414       .  A
C261        C262   1.408       .  A
C262        C270   1.400       .  A
C263        C272   1.407       .  A
C263        C264   1.403       .  A
C264        C265   1.399       .  A
C264        H275   1.084       .  S
C265        C266   1.404       .  A
C265        H276   1.084       .  S
C266        C267   1.401       .  A
C267        C268   1.407       .  A
C267        H277   1.085   1_554  S
C268        C269   1.404       .  A
C269        H278   1.084       .  S
C270        C271   1.412       .  A
C270        H279   1.084       .  S
C271        C272   1.405       .  A
C272        H280   1.084       .  S
C281        C282   1.403   1_455  A
C281        C286   1.405       .  A
C281        H297   1.084       .  S
C282        C659   1.405       .  A
C282        H298   1.084       .  S
C283        C293   1.409       .  A
C283        C284   1.411       .  A
C283        C658   1.405       .  A
C284        C290   1.411       .  A
C284        C661   1.417       .  A
C285        C286   1.413       .  A
C285        C660   1.417   1_455  A
C285        C663   1.412       .  A
C286        C294   1.410       .  A
C287        C288   1.404       .  A
C287        C661   1.412       .  A
C287        C672   1.406       .  A
C288        C289   1.400       .  A
C288        H299   1.083       .  S
C289        C290   1.404       .  A
C289        H300   1.084       .  S
C290        C291   1.406       .  A
C291        C292   1.410       .  A
C291        H301   1.084       .  S
C292        C293   1.411       .  A
C293        H302   1.084       .  S
C294        C295   1.406       .  A
C294        H303   1.084       .  S
C295        C296   1.405       .  A
C296        C663   1.406       .  A
C296        H304   1.085       .  S
C305        C306   1.399   1_455  A
C305        C310   1.404       .  A
C305        H321   1.083       .  S
C306        C683   1.404       .  A
C306        H322   1.084       .  S
C307        C317   1.403       .  A
C307        C308   1.411       .  A
C307        C682   1.404       .  A
C308        C314   1.414       .  A
C308        C685   1.414       .  A
C309        C311   1.410       .  A
C309        C310   1.412       .  A
C309        C684   1.414   1_455  A
C310        C318   1.406       .  A
C311        C320   1.404       .  A
C311        C312   1.405       .  A
C312        C689   1.400   1_455  A
C312        H323   1.083       .  S
C313        C314   1.404       .  A
C313        C688   1.400       .  A
C313        H324   1.084       .  S
C314        C315   1.407       .  A
C315        C316   1.404       .  A
C315        H325   1.084       .  S
C316        C317   1.404       .  A
C317        H326   1.085       .  S
C318        C319   1.409       .  A
C318        H327   1.084       .  S
C319        C320   1.410       .  A
C320        H328   1.084       .  S
C329        C330   1.399       .  A
C329        C334   1.403       .  A
C329        H345   1.083       .  S
C330        C331   1.405       .  A
C330        H346   1.084       .  S
C331        C341   1.402       .  A
C331        C332   1.408       .  A
C332        C338   1.413       .  A
C332        C333   1.414       .  A
C333        C335   1.409       .  A
C333        C334   1.414       .  A
C334        C342   1.407       .  A
C335        C344   1.403       .  A
C335        C336   1.405       .  A
C336        C337   1.400       .  A
C336        H347   1.084       .  S
C337        C338   1.403       .  A
C337        H348   1.083       .  S
C338        C339   1.408       .  A
C339        C340   1.408       .  A
C339        H349   1.084       .  S
C340        C341   1.412       .  A
C341        H350   1.084       .  S
C342        C343   1.407       .  A
C342        H351   1.084       .  S
C343        C344   1.412       .  A
C344        H352   1.084       .  S
C353        C354   1.397       .  A
C353        C358   1.402       .  A
C353        H369   1.084       .  S
C354        C355   1.404       .  A
C354        H370   1.084       .  S
C355        C365   1.397       .  A
C355        C356   1.409       .  A
C356        C738   1.414   1_455  A
C356        C733   1.410   1_455  A
C357        C359   1.410       .  A
C357        C732   1.410       .  A
C357        C734   1.413       .  A
C358        C733   1.413   1_455  A
C358        C742   1.401   1_455  A
C359        C368   1.401       .  A
C359        C360   1.404       .  A
C360        C361   1.399       .  A
C360        H371   1.084       .  S
C361        C362   1.403       .  A
C361        H372   1.083       .  S
C362        C732   1.414       .  A
C362        C739   1.405       .  A
C363        C364   1.404       .  A
C363        C738   1.405   1_455  A
C363        H749   1.084       .  S
C364        C365   1.408       .  A
C365        H374   1.085       .  S
C366        C367   1.403       .  A
C366        C734   1.401       .  A
C366        H751   1.085       .  S
C367        C368   1.408       .  A
C368        H376   1.085       .  S
H373        C739   1.084       .  S
H375        C742   1.085       .  S
Fe377       O393   2.033       .  S
Fe377       O383   2.114       .  S
Fe377       O390   2.097       .  S
Fe377       O382   2.017       .  S
Fe377       O388   1.931       .  S
Fe378       O381   2.033       .  S
Fe378       O385   2.126       .  S
Fe378       O389   2.042       .  S
Fe378       O394   2.114       .  S
Fe378       O388   1.923       .  S
Fe379       O397   2.116       .  S
Fe379       O384   2.057       .  S
Fe379       O391   2.049       .  S
Fe379       O380   2.128       .  S
Fe379       O388   1.934       .  S
O380        C387   1.281       .  A
O381        C395   1.266       .  A
O382        C387   1.261       .  A
O383        C386   1.278       .  A
O384        C396   1.269       .  A
O385        C398   1.284       .  A
C386        O391   1.268       .  A
C386        C695   1.487       .  S
C387        C740   1.472       .  S
O389        C392   1.262       .  A
O390        C392   1.273       .  A
C392        C623   1.475       .  S
O393        C398   1.268       .  A
O394        C396   1.279       .  A
C395        O397   1.281       .  A
C395        C647   1.484       .  S
C396        C671   1.479       .  S
C398        C719   1.489       .  S
Fe399       O415   2.102       .  S
Fe399       O405   2.025       .  S
Fe399       O412   2.043       .  S
Fe399       O404   2.116       .  S
Fe399       O410   1.932       .  S
Fe400       O403   2.122       .  S
Fe400       O407   2.047       .  S
Fe400       O411   2.131       .  S
Fe400       O416   2.031       .  S
Fe400       O410   1.920       .  S
Fe401       O419   2.042       .  S
Fe401       O406   2.120       .  S
Fe401       O413   2.122       .  S
Fe401       O402   2.043       .  S
Fe401       O410   1.938       .  S
O402        C409   1.267       .  A
O403        C417   1.281       .  A
O404        C409   1.279       .  A
O405        C408   1.262       .  A
O406        C418   1.279       .  A
O407        C420   1.264       .  A
C408        O413   1.279       .  A
C408        C551   1.472       .  S
C409        C572   1.482   1_545  S
O411        C414   1.285       .  A
O412        C414   1.270       .  A
C414        C524   1.498       .  S
O415        C420   1.273       .  A
O416        C418   1.265       .  A
C417        O419   1.267       .  A
C417        C599   1.472       .  S
C418        C620   1.483       .  S
C420        C644   1.477   1_556  S
Fe421       O437   2.094       .  S
Fe421       O427   2.034       .  S
Fe421       O434   2.038       .  S
Fe421       O426   2.114       .  S
Fe421       O432   1.929       .  S
Fe422       O425   2.113       .  S
Fe422       O429   2.048       .  S
Fe422       O433   2.119       .  S
Fe422       O438   2.042       .  S
Fe422       O432   1.924       .  S
Fe423       O441   2.045       .  S
Fe423       O428   2.113       .  S
Fe423       O435   2.109       .  S
Fe423       O424   2.046       .  S
Fe423       O432   1.927       .  S
O424        C431   1.270       .  A
O425        C439   1.279       .  A
O426        C431   1.280       .  A
O427        C430   1.262       .  A
O428        C440   1.279       .  A
O429        C442   1.265       .  A
C430        O435   1.277       .  A
C430        C743   1.471       .  S
C431        C596   1.482       .  S
O433        C436   1.282       .  A
O434        C436   1.269       .  A
C436        C716   1.490       .  S
O437        C442   1.273       .  A
O438        C440   1.267       .  A
C439        O441   1.267       .  A
C439        C575   1.469       .  S
C440        C476   1.482       .  S
C442        C503   1.472       .  S
Fe443       O459   2.048       .  S
Fe443       O449   2.109       .  S
Fe443       O456   2.088   1_554  S
Fe443       O448   2.023       .  S
Fe443       O454   1.935       .  S
Fe444       O447   2.041       .  S
Fe444       O451   2.127       .  S
Fe444       O455   2.056       .  S
Fe444       O460   2.110       .  S
Fe444       O454   1.938       .  S
Fe445       O463   2.108       .  S
Fe445       O450   2.040       .  S
Fe445       O457   2.051       .  S
Fe445       O446   2.117       .  S
Fe445       O454   1.944       .  S
O446        C453   1.278       .  A
O447        C461   1.269       .  A
O448        C453   1.263       .  A
O449        C452   1.277       .  A
O450        C462   1.265       .  A
O451        C464   1.285       .  A
C452        O457   1.267       .  A
C452        C668   1.491   1_565  S
C453        C548   1.469       .  S
O455        C458   1.264   1_554  A
O456        C458   1.270       .  A
C458        C479   1.472       .  S
O459        C464   1.273       .  A
O460        C462   1.278       .  A
C461        O463   1.280       .  A
C461        C500   1.485       .  S
C462        C692   1.469       .  S
C464        C527   1.497       .  S
C465        C466   1.400       .  A
C465        C470   1.405       .  A
C465        H481   1.084       .  S
C466        C467   1.404       .  A
C466        H482   1.083       .  S
C467        C477   1.406       .  A
C467        C468   1.413       .  A
C468        C474   1.410       .  A
C468        C469   1.413       .  A
C469        C471   1.415       .  A
C469        C470   1.410       .  A
C470        C478   1.402       .  A
C471        C480   1.408       .  A
C471        C472   1.403       .  A
C472        C473   1.400       .  A
C472        H483   1.083       .  S
C473        C474   1.404       .  A
C473        H484   1.083       .  S
C474        C475   1.403       .  A
C475        C476   1.409       .  A
C475        H485   1.084       .  S
C476        C477   1.408       .  A
C477        H486   1.084       .  S
C478        C479   1.404       .  A
C478        H487   1.081       .  S
C479        C480   1.403       .  A
C480        H488   1.084       .  S
C489        C490   1.398       .  A
C489        C494   1.402       .  A
C489        H505   1.084       .  S
C490        C491   1.404       .  A
C490        H506   1.084       .  S
C491        C501   1.400       .  A
C491        C492   1.408       .  A
C492        C498   1.414       .  A
C492        C493   1.412       .  A
C493        C495   1.410       .  A
C493        C494   1.414       .  A
C494        C502   1.405       .  A
C495        C504   1.402       .  A
C495        C496   1.404       .  A
C496        C497   1.400       .  A
C496        H507   1.084       .  S
C497        C498   1.404       .  A
C497        H508   1.083       .  S
C498        C499   1.407       .  A
C499        C500   1.407       .  A
C499        H509   1.084       .  S
C500        C501   1.411       .  A
C501        H510   1.084       .  S
C502        C503   1.402       .  A
C502        H511   1.084       .  S
C503        C504   1.407       .  A
C504        H512   1.085       .  S
C513        C514   1.401       .  A
C513        C518   1.405       .  A
C513        H529   1.084       .  S
C514        C515   1.404       .  A
C514        H530   1.083       .  S
C515        C525   1.411       .  A
C515        C516   1.414       .  A
C516        C522   1.409   1_545  A
C516        C517   1.418   1_545  A
C517        C519   1.414   1_556  A
C517        C518   1.409   1_565  A
C518        C526   1.405   1_546  A
C519        C528   1.412       .  A
C519        C520   1.405       .  A
C520        C521   1.402       .  A
C520        H531   1.083       .  S
C521        C522   1.406   1_554  A
C521        H532   1.084       .  S
C522        C523   1.407   1_565  A
C523        C524   1.415       .  A
C523        H533   1.084   1_545  S
C524        C525   1.409       .  A
C525        H534   1.084       .  S
C526        C527   1.412       .  A
C526        H535   1.084   1_565  S
C527        C528   1.410       .  A
C528        H536   1.084       .  S
C537        C538   1.398       .  A
C537        C542   1.405   1_554  A
C537        H553   1.084       .  S
C538        H554   1.084       .  S
C539        C549   1.404   1_455  A
C539        C540   1.415   1_455  A
C540        C546   1.408   1_554  A
C541        C543   1.414   1_545  A
C541        C542   1.409       .  A
C542        C550   1.398       .  A
C543        C552   1.403   1_565  A
C544        C545   1.397       .  A
C544        H555   1.083       .  S
C545        C546   1.404       .  A
C545        H556   1.084       .  S
C546        C547   1.396   1_556  A
C547        C548   1.406       .  A
C547        H557   1.081       .  S
C548        C549   1.403       .  A
C549        H558   1.085       .  S
C550        C551   1.409       .  A
C550        H559   1.085       .  S
C551        C552   1.403       .  A
C552        H560   1.085       .  S
C561        C562   1.400       .  A
C561        C566   1.403   1_455  A
C561        H577   1.084       .  S
C562        H578   1.083       .  S
C563        C573   1.403       .  A
C563        C564   1.411       .  A
C564        C570   1.412       .  A
C565        C566   1.413       .  A
C566        C574   1.405       .  A
C567        C568   1.404       .  A
C568        C569   1.400       .  A
C568        H579   1.083       .  S
C569        C570   1.404       .  A
C569        H580   1.083       .  S
C570        C571   1.405       .  A
C571        C572   1.408       .  A
C571        H581   1.084       .  S
C572        C573   1.408       .  A
C573        H582   1.084       .  S
C574        C575   1.404       .  A
C574        H583   1.085       .  S
C575        C576   1.404       .  A
C576        H584   1.084       .  S
C585        C586   1.401       .  A
C585        C590   1.405       .  A
C585        H601   1.083       .  S
C586        H602   1.084       .  S
C587        C597   1.407       .  A
C587        C588   1.413       .  A
C588        C594   1.411       .  A
C589        C591   1.414       .  A
C589        C590   1.411       .  A
C590        C598   1.406       .  A
C591        C600   1.405       .  A
C592        C593   1.399       .  A
C592        H603   1.083   1_655  S
C593        C594   1.403       .  A
C593        H604   1.084       .  S
C594        C595   1.402       .  A
C595        C596   1.407       .  A
C595        H605   1.084       .  S
C596        C597   1.409       .  A
C597        H606   1.084       .  S
C598        C599   1.406       .  A
C598        H607   1.085       .  S
C599        C600   1.403       .  A
C600        H608   1.085       .  S
C609        C610   1.397       .  A
C609        C614   1.401       .  A
C609        H625   1.084       .  S
C610        C611   1.404       .  A
C610        H626   1.083       .  S
C611        C621   1.396       .  A
C611        C612   1.407       .  A
C612        C618   1.415       .  A
C612        C613   1.412       .  A
C613        C615   1.409       .  A
C613        C614   1.415       .  A
C614        C622   1.404       .  A
C615        C624   1.403       .  A
C615        C616   1.405       .  A
C616        C617   1.402       .  A
C616        H627   1.084       .  S
C617        C618   1.404       .  A
C617        H628   1.083       .  S
C618        C619   1.411       .  A
C619        C620   1.407       .  A
C619        H629   1.084       .  S
C620        C621   1.409       .  A
C621        H630   1.084       .  S
C622        C623   1.402       .  A
C622        H631   1.084       .  S
C623        C624   1.409       .  A
C624        H632   1.085       .  S
C633        C634   1.400       .  A
C633        C638   1.405       .  A
C633        H649   1.084       .  S
C634        C635   1.403       .  A
C634        H650   1.083       .  S
C635        C645   1.408       .  A
C635        C636   1.415       .  A
C636        C642   1.409       .  A
C636        C637   1.413       .  A
C637        C639   1.414       .  A
C637        C638   1.408       .  A
C638        C646   1.400       .  A
C639        C648   1.407       .  A
C639        C640   1.403       .  A
C640        C641   1.399       .  A
C640        H651   1.084       .  S
C641        C642   1.404       .  A
C641        H652   1.084       .  S
C642        C643   1.401       .  A
C643        C644   1.407       .  A
C643        H653   1.085   1_554  S
C644        C645   1.404       .  A
C645        H654   1.084       .  S
C646        C647   1.412       .  A
C646        H655   1.084       .  S
C647        C648   1.405       .  A
C648        H656   1.084       .  S
C657        C658   1.403       .  A
C657        C662   1.405       .  A
C657        H673   1.084       .  S
C658        H674   1.084       .  S
C659        C669   1.409       .  A
C659        C660   1.411       .  A
C660        C666   1.411       .  A
C661        C662   1.413       .  A
C662        C670   1.410       .  A
C663        C664   1.404       .  A
C664        C665   1.400   1_455  A
C664        H675   1.083       .  S
C665        C666   1.404       .  A
C665        H676   1.084       .  S
C666        C667   1.406       .  A
C667        C668   1.410       .  A
C667        H677   1.084       .  S
C668        C669   1.411       .  A
C669        H678   1.084       .  S
C670        C671   1.406       .  A
C670        H679   1.084       .  S
C671        C672   1.405       .  A
C672        H680   1.085       .  S
C681        C682   1.399       .  A
C681        C686   1.404       .  A
C681        H697   1.083       .  S
C682        H698   1.084       .  S
C683        C693   1.403       .  A
C683        C684   1.411       .  A
C684        C690   1.414       .  A
C685        C687   1.410       .  A
C685        C686   1.412       .  A
C686        C694   1.406       .  A
C687        C696   1.404       .  A
C687        C688   1.405       .  A
C688        H699   1.083       .  S
C689        C690   1.404       .  A
C689        H700   1.084       .  S
C690        C691   1.407       .  A
C691        C692   1.404       .  A
C691        H701   1.084       .  S
C692        C693   1.404       .  A
C693        H702   1.085       .  S
C694        C695   1.409       .  A
C694        H703   1.084       .  S
C695        C696   1.410       .  A
C696        H704   1.084       .  S
C705        C706   1.399       .  A
C705        C710   1.403       .  A
C705        H721   1.083       .  S
C706        C707   1.405       .  A
C706        H722   1.084       .  S
C707        C717   1.402       .  A
C707        C708   1.408       .  A
C708        C714   1.413       .  A
C708        C709   1.414       .  A
C709        C711   1.409       .  A
C709        C710   1.414       .  A
C710        C718   1.407       .  A
C711        C720   1.403       .  A
C711        C712   1.405       .  A
C712        C713   1.400       .  A
C712        H723   1.084       .  S
C713        C714   1.403       .  A
C713        H724   1.083       .  S
C714        C715   1.408       .  A
C715        C716   1.408       .  A
C715        H725   1.084       .  S
C716        C717   1.412       .  A
C717        H726   1.084       .  S
C718        C719   1.407       .  A
C718        H727   1.084       .  S
C719        C720   1.412       .  A
C720        H728   1.084       .  S
C729        C730   1.397       .  A
C729        C734   1.402       .  A
C729        H745   1.084       .  S
C730        C731   1.404       .  A
C730        H746   1.084       .  S
C731        C741   1.397       .  A
C731        C732   1.409       .  A
C733        C735   1.410       .  A
C735        C744   1.401       .  A
C735        C736   1.404       .  A
C736        C737   1.399       .  A
C736        H747   1.084       .  S
C737        C738   1.403       .  A
C737        H748   1.083       .  S
C739        C740   1.404       .  A
C740        C741   1.408       .  A
C741        H750   1.085       .  S
C742        C743   1.403       .  A
C743        C744   1.408       .  A
C744        H752   1.085       .  S
