geometry optimzed in LAMMPS
_audit_creation_date              2020-12-01 
_audit_creation_method            'lammps2cif' 
_symmetry_space_group_name_H-M    'P1' 
_symmetry_Int_Tables_number       1 
_symmetry_cell_setting            triclinic 
loop_ 
_symmetry_equiv_pos_as_xyz 
  x,y,z 
_cell_length_a                    54.25767995 
_cell_length_b                    26.25483843827618 
_cell_length_c                    29.252450476544464 
_cell_angle_alpha                 90.92509160842563 
_cell_angle_beta                  118.28655236169016 
_cell_angle_gamma                 89.71431504231518 
loop_ 
_atom_site_label 
_atom_site_type_symbol 
_atom_site_fract_x 
_atom_site_fract_y 
_atom_site_fract_z 
_atom_site_charge 
O1          O  0.11524611  0.30158383  0.44556001    -0.84900
O2          O  0.08750999  0.26622314  0.34425253    -0.82000
C3          C  0.06161302  0.26777048  0.33139968     0.98500
O4          O  0.05021222  0.30979662  0.33035398    -0.82000
O5          O  0.04281090  0.41103783  0.34505595    -0.84700
C6          C  0.04898986  0.41630885  0.39252323     1.03000
O7          O  0.07338960  0.40751511  0.42740860    -0.77400
O8          O  0.12756466  0.37803099  0.47908895    -0.77600
C9          C  0.12330742  0.33146410  0.48412989     1.03000
O10         O  0.15409613  0.35973268  0.42405747    -0.84900
O11         O  0.12232371  0.33135560  0.32065362    -0.82000
C12         C  0.10195068  0.32617355  0.27568927     0.98500
O13         O  0.07732313  0.33382066  0.26908816    -0.82000
O14         O  0.07338315  0.43570572  0.29036048    -0.84600
C15         C  0.07488900  0.47674405  0.31439120     1.03000
O16         O  0.08421839  0.47559072  0.36318217    -0.77500
O17         O  0.13793891  0.43775229  0.40721838    -0.77600
C18         C  0.15808856  0.40723816  0.42225386     1.03000
Cr19       Cr  0.11831577  0.31840159  0.38296380     1.93700
Cr20       Cr  0.06333573  0.37238811  0.31284895     1.93200
Cr21       Cr  0.10525450  0.42120668  0.41585047     1.39100
O22         O  0.09565822  0.37072305  0.37028189    -1.22700
O23         O  0.12039061  0.10539869  0.97073121    -0.84900
O24         O  0.06689950  0.07531330  0.91080102    -0.82000
C25         C  0.04418708  0.06003437  0.87441530     0.98500
O26         O  0.03892602  0.06755659  0.82775898    -0.82000
O27         O  0.04581409  0.17184623  0.82118408    -0.84700
C28         C  0.05670939  0.21507989  0.82560837     1.03000
O29         O  0.08289763  0.21871899  0.84041377    -0.77400
O30         O  0.10949541  0.18227123  0.93967994    -0.77600
C31         C  0.11667202  0.15230597  0.97693146     1.03000
O32         O  0.13489617  0.04805217  0.90106613    -0.84900
O33         O  0.08130816  0.00927797  0.84685783    -0.82000
C34         C  0.07333713  0.01094325  0.79842415     0.98500
O35         O  0.07410818  0.05254838  0.77862209    -0.82000
O36         O  0.07590578  0.15586592  0.76341538    -0.84600
C37         C  0.10097753  0.16514136  0.77319861     1.03000
O38         O  0.12070063  0.15715013  0.81801404    -0.77500
O39         O  0.15055574  0.12650240  0.92079873    -0.77600
C40         C  0.15510030  0.07871036  0.92052228     1.03000
Cr41       Cr  0.10048018  0.06294810  0.90430775     1.93700
Cr42       Cr  0.06087519  0.11222108  0.80187901     1.93200
Cr43       Cr  0.11451462  0.16741203  0.87864769     1.39100
O44         O  0.09213197  0.11419689  0.86150310    -1.22700
O45         O  0.37610152  0.61535314  0.49973766    -0.84900
O46         O  0.43049830  0.58932447  0.54742592    -0.82000
C47         C  0.45442252  0.57462066  0.57912062     0.98500
O48         O  0.46265818  0.58058124  0.62742155    -0.82000
O49         O  0.45411189  0.68365562  0.64215172    -0.84700
C50         C  0.44221356  0.72474888  0.64297783     1.03000
O51         O  0.41705098  0.72406628  0.63501390    -0.77400
O52         O  0.38733369  0.69074621  0.53575088    -0.77600
C53         C  0.37956599  0.66273746  0.49613547     1.03000
O54         O  0.36880595  0.55145696  0.57364450    -0.84900
O55         O  0.42341744  0.51696340  0.61460685    -0.82000
C56         C  0.43405398  0.51718806  0.66392841     0.98500
O57         O  0.43393213  0.55796442  0.68650431    -0.82000
O58         O  0.43158405  0.65781833  0.70981171    -0.84600
C59         C  0.40768919  0.66257577  0.70730159     1.03000
O60         O  0.38589018  0.65588250  0.66431674    -0.77500
O61         O  0.35123488  0.62805267  0.56032252    -0.77600
C62         C  0.34788776  0.57998253  0.55971396     1.03000
Cr63       Cr  0.40013712  0.57131026  0.56197105     1.93700
Cr64       Cr  0.44337630  0.62024482  0.66267505     1.93200
Cr65       Cr  0.38669365  0.67106950  0.59929127     1.39100
O66         O  0.40994013  0.62083032  0.60821101    -1.22700
O67         O  0.38632762  0.79410996  0.03893545    -0.84900
O68         O  0.41545236  0.76680062  0.13976762    -0.82000
C69         C  0.44120457  0.76722991  0.15128640     0.98500
O70         O  0.45289123  0.80854604  0.15112822    -0.82000
O71         O  0.46010769  0.91003849  0.13214339    -0.84700
C72         C  0.45318596  0.91386769  0.08422550     1.03000
O73         O  0.42963446  0.89804265  0.05085328    -0.77400
O74         O  0.37572200  0.86750316  0.00113624    -0.77600
C75         C  0.38088768  0.82041446  0.99992999     1.03000
O76         O  0.34862457  0.85775642  0.05963272    -0.84900
O77         O  0.38154745  0.83579944  0.16339000    -0.82000
C78         C  0.40242606  0.83125673  0.20760035     0.98500
O79         O  0.42677499  0.83853717  0.21277462    -0.82000
O80         O  0.42825266  0.93774954  0.18513386    -0.84600
C81         C  0.42969258  0.97585897  0.16125375     1.03000
O82         O  0.41924564  0.97316243  0.11216096    -0.77500
O83         O  0.36465790  0.93587678  0.06873343    -0.77600
C84         C  0.34468688  0.90567211  0.05847568     1.03000
Cr85       Cr  0.38437688  0.81741564  0.10072716     1.93700
Cr86       Cr  0.43975533  0.87330289  0.16634621     1.93200
Cr87       Cr  0.39762986  0.91553602  0.06157953     1.39100
O88         O  0.40717621  0.86868651  0.10962114    -1.22700
C89         C  0.37544069  0.69529331  0.79508489    -0.05100
C90         C  0.39512929  0.73036704  0.83023293     0.09100
C91         C  0.42059524  0.73816713  0.82952736    -0.02400
C92         C  0.42581938  0.71318231  0.79192766    -0.00700
C93         C  0.40499157  0.68107999  0.75343646    -0.04300
C94         C  0.38041216  0.67042392  0.75716910     0.02700
C95         C  0.39065066  0.75361379  0.87264860     0.09500
C96         C  0.44170566  0.77147734  0.86838223     0.35400
C97         C  0.36080004  0.63163213  0.72398257     0.38900
C98         C  0.40133121  0.72865415  0.92027707    -0.04700
C99         C  0.39746208  0.74939481  0.96102968     0.02500
C100        C  0.38231027  0.79581793  0.95441415    -0.04300
C101        C  0.37065462  0.81960385  0.90528448    -0.00500
C102        C  0.37545961  0.79918111  0.86514583    -0.03100
C103        C  0.41683126  0.68146773  0.92748881     0.36200
C104        C  0.35288805  0.86402613  0.89490308     0.39800
C105        C  0.40968990  0.72200535  0.00953353     0.38900
C106        C  0.36533986  0.82556820  0.81637794     0.35800
C107        C  0.35043328  0.68384758  0.79912598     0.36500
C108        C  0.45273385  0.72067860  0.79376104     0.39800
N109        N  0.41942618  0.69892958  0.04743915    -0.38300
N110        N  0.42920674  0.64401401  0.93310901    -0.39900
N111        N  0.33847651  0.89915362  0.88634462    -0.37600
N112        N  0.35753181  0.84688408  0.77764254    -0.40000
N113        N  0.45851835  0.79775661  0.89951608    -0.39800
N114        N  0.47443138  0.72643759  0.79590521    -0.37400
N115        N  0.34532911  0.60041690  0.69801747    -0.38500
N116        N  0.33057833  0.67465572  0.80276832    -0.40100
C117        C  0.37659285  0.76512676  0.40210436    -0.05100
C118        C  0.38241531  0.73662906  0.36715849     0.09100
C119        C  0.38305572  0.68296203  0.36963729    -0.02400
C120        C  0.37977477  0.65798741  0.40898265    -0.00700
C121        C  0.37613313  0.68666483  0.44693099    -0.04300
C122        C  0.37295468  0.74048109  0.44102403     0.02700
C123        C  0.38791735  0.76333673  0.32774964     0.09500
C124        C  0.38758169  0.65341786  0.33191424     0.35400
C125        C  0.36574324  0.77129446  0.47466311     0.38900
C126        C  0.41530436  0.76604151  0.33404074    -0.04700
C127        C  0.42038902  0.78885304  0.29579986     0.02500
C128        C  0.39819208  0.81235653  0.25190337    -0.04300
C129        C  0.37105821  0.81285713  0.24829922    -0.00500
C130        C  0.36584347  0.78667102  0.28467560    -0.03100
C131        C  0.43837037  0.74493868  0.38013531     0.36200
C132        C  0.34819350  0.84079494  0.20768677     0.39800
C133        C  0.44834544  0.78546759  0.30120634     0.38900
C134        C  0.33750337  0.78275366  0.27725539     0.35800
C135        C  0.37500847  0.82026839  0.39875739     0.36500
C136        C  0.38050500  0.60287198  0.41003170     0.39800
N137        N  0.47063693  0.78206700  0.30551588    -0.38300
N138        N  0.45673743  0.72832446  0.41699856    -0.39900
N139        N  0.32993239  0.86313330  0.17553956    -0.37600
N140        N  0.31491361  0.77936919  0.27136219    -0.40000
N141        N  0.39129338  0.62997437  0.30191040    -0.39800
N142        N  0.38072878  0.55879634  0.40959884    -0.37400
N143        N  0.36008620  0.79602188  0.50144601    -0.38500
N144        N  0.37361796  0.86421041  0.39589300    -0.40100
C145        C  0.26608921  0.93263462  0.98096746    -0.05100
C146        C  0.26352433  0.97643980  0.00711234     0.09100
C147        C  0.28707856  0.99420379  0.05244602    -0.02400
C148        C  0.31322334  0.96966898  0.07046518    -0.00700
C149        C  0.31626793  0.92740728  0.04276858    -0.04300
C150        C  0.29241363  0.90879950  0.99806113     0.02700
C151        C  0.23611625  0.00444196  0.98660440     0.09500
C152        C  0.28431758  0.03801986  0.08050729     0.35400
C153        C  0.29520908  0.86718333  0.96761376     0.38900
C154        C  0.21514681  0.98759384  0.99828112    -0.04700
C155        C  0.18954506  0.01413356  0.97944529     0.02500
C156        C  0.18394848  0.05649156  0.94632990    -0.04300
C157        C  0.20520283  0.07387288  0.93549619    -0.00500
C158        C  0.23133503  0.04851333  0.95636055    -0.03100
C159        C  0.21992453  0.94266695  0.02962464     0.36200
C160        C  0.19983648  0.11628292  0.90101621     0.39800
C161        C  0.16928932  0.99860380  0.99574073     0.38900
C162        C  0.25338935  0.06753516  0.94653220     0.35800
C163        C  0.24159243  0.91228175  0.93619379     0.36500
C164        C  0.33696337  0.98777947  0.11799413     0.39800
N165        N  0.15332990  0.98645051  0.00925428    -0.38300
N166        N  0.22366344  0.90662147  0.05431432    -0.39900
N167        N  0.19561965  0.14990952  0.87320140    -0.37600
N168        N  0.27117316  0.08281059  0.93924756    -0.40000
N169        N  0.28199156  0.07302786  0.10268316    -0.39800
N170        N  0.35591007  0.00217329  0.15592172    -0.37400
N171        N  0.29754930  0.83430127  0.94313480    -0.38500
N172        N  0.22198623  0.89568054  0.90080405    -0.40100
C173        C  0.02878029  0.96261613  0.95078066    -0.05100
C174        C  0.00227418  0.97832254  0.94299313     0.09100
C175        C  0.50725974  0.00448706  0.94549725    -0.02400
C176        C  0.99937864  0.03810250  0.87685415    -0.00700
C177        C  0.02714935  0.02630057  0.88895618    -0.04300
C178        C  0.04099883  0.98590337  0.92344228     0.02700
C179        C  0.49821469  0.00007419  0.02219117     0.09500
C180        C  0.49098201  0.95812273  0.92523438     0.35400
C181        C  0.06828646  0.96860583  0.93191630     0.38900
C182        C  0.46973130  0.00946007  0.00587139    -0.04700
C183        C  0.45553610  0.98232425  0.02746230     0.02500
C184        C  0.46967816  0.94488263  0.06576040    -0.04300
C185        C  0.49868034  0.93773753  0.08440706    -0.00500
C186        C  0.97997699  0.90859547  0.96952663    -0.03100
C187        C  0.45488737  0.04676056  0.96593000     0.36200
C188        C  0.95918283  0.83811449  0.99526722     0.39800
C189        C  0.42624921  0.99383417  0.01024207     0.38900
C190        C  0.97749006  0.87785930  0.92587938     0.35800
C191        C  0.04404867  0.92387794  0.98871983     0.36500
C192        C  0.98391539  0.07522586  0.83740096     0.39800
N193        N  0.40290600  0.00313597  0.99620284    -0.38300
N194        N  0.44316783  0.07645786  0.93402985    -0.39900
N195        N  0.95017360  0.79732025  0.98994127    -0.37600
N196        N  0.97542662  0.85345052  0.89093825    -0.40000
N197        N  0.47798333  0.92114645  0.90913213    -0.39800
N198        N  0.50838539  0.99295643  0.82615580    -0.37400
N199        N  0.09001026  0.95413520  0.93921037    -0.38500
N200        N  0.05618744  0.89294916  0.01890071    -0.40100
C201        C  0.01283449  0.93614333  0.69259032    -0.05100
C202        C  0.02148459  0.88556823  0.70649308     0.09100
C203        C  0.04868738  0.87587442  0.74714489    -0.02400
C204        C  0.06656920  0.91678996  0.77563091    -0.00700
C205        C  0.05734417  0.96758462  0.76350154    -0.04300
C206        C  0.03051391  0.97698100  0.72084142     0.02700
C207        C  0.00006488  0.84383593  0.68463858     0.09500
C208        C  0.05767170  0.82377046  0.76117248     0.35400
C209        C  0.01970373  0.02849498  0.70866769     0.38900
C210        C  0.99351578  0.81922942  0.63686231    -0.04700
C211        C  0.48253866  0.77799817  0.65039879     0.02500
C212        C  0.45905843  0.77278014  0.65904612    -0.04300
C213        C  0.45404048  0.81094154  0.68853528    -0.00500
C214        C  0.47330670  0.85117187  0.71203736    -0.03100
C215        C  0.00838385  0.83332541  0.60884591     0.36200
C216        C  0.42977699  0.80837191  0.69704034     0.39800
C217        C  0.48606990  0.74407290  0.61428066     0.38900
C218        C  0.46764158  0.89050801  0.74113428     0.35800
C219        C  0.98469429  0.94610849  0.65153124     0.36500
C220        C  0.09423073  0.90666809  0.81802942     0.39800
N221        N  0.96350396  0.72967040  0.53292590    -0.38300
N222        N  0.02014412  0.84488227  0.58633499    -0.39900
N223        N  0.41056127  0.80670803  0.70413663    -0.37600
N224        N  0.46251569  0.92153673  0.76389115    -0.40000
N225        N  0.06483659  0.78214551  0.77245396    -0.39800
N226        N  0.11631746  0.89877055  0.85186198    -0.37400
N227        N  0.01090780  0.06945979  0.69910930    -0.38500
N228        N  0.49184702  0.94147652  0.61129935    -0.40100
C229        C  0.01930883  0.33559462  0.75295772    -0.05100
C230        C  0.99486593  0.33492445  0.75868218     0.09100
C231        C  0.50925322  0.32614935  0.81586980    -0.02400
C232        C  0.01359206  0.26162138  0.81592014    -0.00700
C233        C  0.03750007  0.26029780  0.80809010    -0.04300
C234        C  0.04034164  0.29824009  0.77689620     0.02700
C235        C  0.49091282  0.39672291  0.75139104     0.09500
C236        C  0.48552774  0.33375900  0.82532746     0.35400
C237        C  0.06405561  0.29770179  0.76685817     0.38900
C238        C  0.46957790  0.38682630  0.70042961    -0.04700
C239        C  0.44956518  0.42458052  0.67294170     0.02500
C240        C  0.45091798  0.47312683  0.69606194    -0.04300
C241        C  0.47135228  0.48104328  0.74926354    -0.00500
C242        C  0.49138678  0.44328623  0.77607618    -0.03100
C243        C  0.95622049  0.32786820  0.64829864     0.36200
C244        C  0.47259506  0.52791759  0.77738858     0.39800
C245        C  0.42724489  0.41237582  0.62139398     0.38900
C246        C  0.51300577  0.45258143  0.82922168     0.35800
C247        C  0.02254518  0.37435558  0.72134907     0.36500
C248        C  0.01099426  0.22590928  0.85080452     0.39800
N249        N  0.40942782  0.40186552  0.58050355    -0.38300
N250        N  0.95816676  0.29378965  0.62463459    -0.39900
N251        N  0.47373279  0.56498580  0.80032604    -0.37600
N252        N  0.53021608  0.45984144  0.87152973    -0.40000
N253        N  0.46656854  0.34001567  0.83272132    -0.39800
N254        N  0.00899681  0.19763773  0.87880057    -0.37400
N255        N  0.08284052  0.29780877  0.75837439    -0.38500
N256        N  0.02506777  0.40514324  0.69600864    -0.40100
C257        C  0.09535590  0.20390457  0.64244038    -0.05100
C258        C  0.11764749  0.23903826  0.65821540     0.09100
C259        C  0.13489626  0.24894335  0.71156704    -0.02400
C260        C  0.12956064  0.22494775  0.74894332    -0.00700
C261        C  0.10718095  0.18929080  0.73340448    -0.04300
C262        C  0.09027376  0.17886559  0.67965707     0.02700
C263        C  0.12286249  0.26544873  0.61828166     0.09500
C264        C  0.15822262  0.28414933  0.72798356     0.35400
C265        C  0.06788690  0.14156103  0.66220050     0.38900
C266        C  0.11514981  0.31687716  0.60599536    -0.04700
C267        C  0.11813666  0.34037552  0.56568515     0.02500
C268        C  0.12694422  0.31143157  0.53467941    -0.04300
C269        C  0.13632593  0.26083898  0.54937911    -0.00500
C270        C  0.13476947  0.23844475  0.59152931    -0.03100
C271        C  0.10287795  0.34498065  0.63329961     0.36200
C272        C  0.14785535  0.23159587  0.52146510     0.39800
C273        C  0.11098259  0.39374698  0.55516468     0.38900
C274        C  0.14511041  0.18719260  0.60715415     0.35800
C275        C  0.07750206  0.19374082  0.58751501     0.36500
C276        C  0.14637016  0.23959538  0.80314660     0.39800
N277        N  0.10538671  0.43644050  0.54719611    -0.38300
N278        N  0.09294437  0.36732125  0.65484767    -0.39900
N279        N  0.15696935  0.20817181  0.49915170    -0.37600
N280        N  0.15344354  0.14637602  0.61987632    -0.40000
N281        N  0.17679275  0.31223637  0.74096750    -0.39800
N282        N  0.15974661  0.25175515  0.84625159    -0.37400
N283        N  0.05001873  0.11180488  0.64807862    -0.38500
N284        N  0.06338645  0.18571785  0.54363537    -0.40100
C285        C  0.13739894  0.26323169  0.20205684    -0.05100
C286        C  0.11449803  0.25518835  0.15236928     0.09100
C287        C  0.08818954  0.27556868  0.14113559    -0.02400
C288        C  0.08414441  0.30044534  0.18031210    -0.00700
C289        C  0.10680870  0.30654489  0.23160860    -0.04300
C290        C  0.13387778  0.28970991  0.24102890     0.02700
C291        C  0.11805090  0.22579491  0.11131749     0.09500
C292        C  0.06516893  0.27103697  0.08865495     0.35400
C293        C  0.15857779  0.29906713  0.29062237     0.38900
C294        C  0.10700653  0.17599803  0.09668881    -0.04700
C295        C  0.10817333  0.15001098  0.05498305     0.02500
C296        C  0.12049732  0.17372800  0.02757095    -0.04300
C297        C  0.13335828  0.22210047  0.04497692    -0.00500
C298        C  0.13172105  0.24828754  0.08595372    -0.03100
C299        C  0.09362862  0.15213983  0.12369557     0.36200
C300        C  0.14851670  0.24508481  0.02083376     0.39800
C301        C  0.09550635  0.09997167  0.03912948     0.38900
C302        C  0.14325522  0.29927173  0.10085843     0.35800
C303        C  0.16472772  0.24362459  0.21326017     0.36500
C304        C  0.05638487  0.31927814  0.16685216     0.39800
N305        N  0.08539772  0.05993389  0.02715561    -0.38300
N306        N  0.08284733  0.13333751  0.14511255    -0.39900
N307        N  0.16066895  0.26327925  0.00168813    -0.37600
N308        N  0.15245682  0.33995068  0.11285328    -0.40000
N309        N  0.04692953  0.26751921  0.04673427    -0.39800
N310        N  0.03412575  0.33397184  0.15576769    -0.37400
N311        N  0.17837863  0.30661407  0.32992720    -0.38500
N312        N  0.18654908  0.22822423  0.22214377    -0.40100
C313        C  0.53591605  0.13896028  0.26322071    -0.05100
C314        C  0.00328061  0.14256613  0.26186738     0.09100
C315        C  0.02576025  0.14899594  0.25082970    -0.02400
C316        C  0.04586131  0.18774672  0.27600569    -0.00700
C317        C  0.04345956  0.22139448  0.31199154    -0.04300
C318        C  0.02127102  0.21406526  0.32394903     0.02700
C319        C  0.49020005  0.09518875  0.24166588     0.09500
C320        C  0.02819910  0.11596948  0.21294581     0.35400
C321        C  0.01904739  0.24648983  0.36245226     0.38900
C322        C  0.49519380  0.04541599  0.26094442    -0.04700
C323        C  0.47512822  0.00687778  0.23553923     0.02500
C324        C  0.44915923  0.01826774  0.19122743    -0.04300
C325        C  0.44401259  0.06866817  0.17276424    -0.00500
C326        C  0.46461142  0.10679945  0.19749819    -0.03100
C327        C  0.52136043  0.03369611  0.30672652     0.36200
C328        C  0.41743830  0.08154201  0.12863997     0.39800
C329        C  0.48235513  0.95500981  0.25369097     0.38900
C330        C  0.01846530  0.04051422  0.29758457     0.35800
C331        C  0.54100478  0.10038889  0.23263806     0.36500
C332        C  0.06840684  0.19367326  0.26307907     0.39800
N333        N  0.48828930  0.91369839  0.26814282    -0.38300
N334        N  0.54225690  0.02436918  0.34305298    -0.39900
N335        N  0.39620862  0.09185163  0.09356655    -0.37600
N336        N  0.04004171  0.03362858  0.33332352    -0.40000
N337        N  0.03074359  0.09010364  0.18308263    -0.39800
N338        N  0.08637815  0.19757912  0.25262761    -0.37400
N339        N  0.01717298  0.27230753  0.39307249    -0.38500
N340        N  0.54510742  0.06925728  0.20859956    -0.40100
C341        C  0.03119720  0.56047720  0.19829619    -0.05100
C342        C  0.02182656  0.59805661  0.22131684     0.09100
C343        C  0.03450888  0.60217601  0.27588180    -0.02400
C344        C  0.05431269  0.56572698  0.30729780    -0.00700
C345        C  0.06158131  0.52420978  0.28412515    -0.04300
C346        C  0.05169750  0.52490899  0.22955318     0.02700
C347        C  0.99977058  0.63565488  0.18875630     0.09500
C348        C  0.02656265  0.64360494  0.29968472     0.35400
C349        C  0.06299923  0.49002069  0.20525021     0.38900
C350        C  0.47391745  0.64632779  0.22708380    -0.04700
C351        C  0.45417163  0.68500590  0.20140585     0.02500
C352        C  0.45871855  0.72019560  0.16985313    -0.04300
C353        C  0.48185344  0.71263949  0.16044593    -0.00500
C354        C  0.00719922  0.67871236  0.17001203    -0.03100
C355        C  0.46992157  0.61313089  0.26212198     0.36200
C356        C  0.48548517  0.74461494  0.12403409     0.39800
C357        C  0.42946950  0.68850974  0.20844666     0.38900
C358        C  0.03535098  0.68280456  0.17634002     0.35800
C359        C  0.48981999  0.54019501  0.17470324     0.36500
C360        C  0.06605557  0.57063843  0.36322827     0.39800
N361        N  0.40962634  0.69057791  0.21368576    -0.38300
N362        N  0.46607746  0.58760984  0.28996183    -0.39900
N363        N  0.48828353  0.76985985  0.09475943    -0.37600
N364        N  0.05775740  0.68589577  0.18135435    -0.40000
N365        N  0.02016339  0.67672412  0.31842118    -0.39800
N366        N  0.07521268  0.57483910  0.40778671    -0.37400
N367        N  0.07224164  0.46263393  0.18593019    -0.38500
N368        N  0.46994241  0.53194264  0.13571744    -0.40100
C369        C  0.28792627  0.48227556  0.50035808    -0.05100
C370        C  0.26582793  0.50886329  0.50201218     0.09100
C371        C  0.27021261  0.55921300  0.52195422    -0.02400
C372        C  0.29690949  0.58247267  0.54153682    -0.00700
C373        C  0.31934456  0.55604292  0.53970969    -0.04300
C374        C  0.31422578  0.50579555  0.51777418     0.02700
C375        C  0.23785630  0.48326471  0.48177167     0.09500
C376        C  0.24710161  0.58707030  0.52203619     0.35400
C377        C  0.33534385  0.47806184  0.51058818     0.38900
C378        C  0.23254803  0.45044169  0.51390426    -0.04700
C379        C  0.20698120  0.42341752  0.49385256     0.02500
C380        C  0.18658339  0.42891121  0.44136153    -0.04300
C381        C  0.19212932  0.46116699  0.40905345    -0.00500
C382        C  0.21761581  0.48835259  0.42923150    -0.03100
C383        C  0.25340897  0.44492777  0.56781633     0.36200
C384        C  0.17168515  0.46571744  0.35468511     0.39800
C385        C  0.20121587  0.39171222  0.52786133     0.38900
C386        C  0.22308509  0.52167936  0.39599314     0.35800
C387        C  0.28339855  0.43028925  0.48010860     0.36500
C388        C  0.30116447  0.63318835  0.56446527     0.39800
N389        N  0.19661121  0.36652628  0.55506227    -0.38300
N390        N  0.27011036  0.44064606  0.61081139    -0.39900
N391        N  0.15534661  0.46902303  0.31132420    -0.37600
N392        N  0.22745529  0.54843311  0.36958116    -0.40000
N393        N  0.22856912  0.60937353  0.52173532    -0.39800
N394        N  0.30450171  0.67362016  0.58280128    -0.37400
N395        N  0.35176150  0.45512828  0.50423228    -0.38500
N396        N  0.27972645  0.38884163  0.46419204    -0.40100
C397        C  0.02081250  0.45800222  0.48217885    -0.05100
C398        C  0.00839376  0.50488796  0.45989985     0.09100
C399        C  0.00459287  0.51729249  0.41025870    -0.02400
C400        C  0.01444560  0.48405608  0.38423188    -0.00700
C401        C  0.02957232  0.43992541  0.40905214    -0.04300
C402        C  0.03112767  0.42547939  0.45661979     0.02700
C403        C  0.49438390  0.48848751  0.50618543     0.09500
C404        C  0.48827033  0.53403382  0.41286602     0.35400
C405        C  0.04218955  0.37593544  0.47809079     0.38900
C406        C  0.00817693  0.56728829  0.52659774    -0.04700
C407        C  0.49830349  0.54928630  0.57389544     0.01300
C408        C  0.46959709  0.54254867  0.55823017    -0.04300
C409        C  0.45412904  0.50528370  0.51941025    -0.00500
C410        C  0.46632058  0.47927672  0.49295832    -0.03100
C411        C  0.03631010  0.58343984  0.53996629     0.36200
C412        C  0.42563256  0.49246228  0.50697440     0.39800
C413        C  0.01027759  0.61878321  0.60010684     0.38900
C414        C  0.44986118  0.44319538  0.45146475     0.35800
C415        C  0.02217563  0.44252627  0.53076985     0.36500
C416        C  0.00833464  0.49432418  0.33151594     0.39800
N417        N  0.02192745  0.64747460  0.63405951    -0.38300
N418        N  0.05880134  0.59623745  0.55060602    -0.39900
N419        N  0.40289831  0.48192760  0.49666495    -0.37600
N420        N  0.43680625  0.41449949  0.41835157    -0.40000
N421        N  0.47742448  0.57332017  0.40179022    -0.39800
N422        N  0.00313203  0.50077596  0.28887817    -0.37400
N423        N  0.05064190  0.33627282  0.49510890    -0.38500
N424        N  0.02308920  0.43012877  0.56934271    -0.40100
O425        O  0.61649266  0.29622727  0.44872153    -0.84900
O426        O  0.59314351  0.26589074  0.34754828    -0.82000
C427        C  0.56692511  0.26587691  0.33224154     0.98500
O428        O  0.55446142  0.30712599  0.32866188    -0.82000
O429        O  0.54446292  0.40358591  0.35047609    -0.84700
C430        C  0.54913911  0.40206342  0.39753571     1.03000
O431        O  0.57344554  0.39466064  0.43327639    -0.77400
O432        O  0.62778564  0.36959524  0.48843866    -0.77600
C433        C  0.62270866  0.32246811  0.48895319     1.03000
O434        O  0.65717697  0.36174830  0.43744954    -0.84900
O435        O  0.62952304  0.33726808  0.33361457    -0.82000
C436        C  0.61054829  0.33211597  0.28745407     0.98500
O437        O  0.58509799  0.33977497  0.27644002    -0.82000
O438        O  0.57897726  0.43919428  0.30475722    -0.84600
C439        C  0.57567979  0.47639892  0.32878703     1.03000
O440        O  0.58379150  0.47237428  0.37709656    -0.77500
O441        O  0.63950948  0.43893722  0.42454814    -0.77600
C442        C  0.66041089  0.41000392  0.43938315     1.03000
Cr443      Cr  0.62263030  0.31881488  0.39127958     1.93700
Cr444      Cr  0.56801044  0.37248920  0.31896411     1.93200
Cr445      Cr  0.60591347  0.41598071  0.42725985     1.39100
O446        O  0.59892400  0.36916494  0.37872754    -1.22700
O447        O  0.63492796  0.11774343  0.98952476    -0.84900
O448        O  0.57979236  0.09407995  0.94739749    -0.82000
C449        C  0.55426490  0.08896514  0.91601786     0.98500
O450        O  0.54581275  0.09214064  0.86747818    -0.82000
O451        O  0.55591501  0.19070601  0.85090282    -0.84700
C452        C  0.56807986  0.23057852  0.84904729     1.03000
O453        O  0.59332895  0.22855833  0.85783228    -0.77400
O454        O  0.62454516  0.19446828  0.95805047    -0.77600
C455        C  0.63272069  0.16511793  0.99614525     1.03000
O456        O  0.63808950  0.05264115  0.91118929    -0.84900
O457        O  0.58325568  0.02129164  0.87573049    -0.82000
C458        C  0.57224956  0.01964745  0.82653060     0.98500
O459        O  0.57087805  0.06002948  0.80324245    -0.82000
O460        O  0.57614067  0.15814299  0.78022781    -0.84600
C461        C  0.59986211  0.16167680  0.78170313     1.03000
O462        O  0.62175668  0.15706196  0.82460299    -0.77500
O463        O  0.65699689  0.12881474  0.92575709    -0.77600
C464        C  0.65896858  0.08074244  0.92242292     1.03000
Cr465      Cr  0.60844842  0.07488815  0.92757836     1.93700
Cr466      Cr  0.56464727  0.12519024  0.82939566     1.93200
Cr467      Cr  0.62259393  0.17373357  0.89127564     1.39100
O468        O  0.59856526  0.12469627  0.88261713    -1.22700
O469        O  0.90095434  0.60114605  0.50308584    -0.84900
O470        O  0.93954298  0.53969130  0.58090890    -0.82000
C471        C  0.95715267  0.57124523  0.58311068     0.98500
O472        O  0.96243887  0.60879525  0.61419522    -0.82000
O473        O  0.94954520  0.68719177  0.66480188    -0.84700
C474        C  0.94079724  0.72082621  0.63082951     1.03000
O475        O  0.91812211  0.71440079  0.58941058    -0.77400
O476        O  0.87486840  0.66190709  0.50863551    -0.77600
C477        C  0.88766376  0.64230433  0.48610455     1.03000
O478        O  0.85916415  0.56562774  0.53038342    -0.84900
O479        O  0.90169456  0.51163210  0.61403988    -0.82000
C480        C  0.92525084  0.50423610  0.65384719     0.98500
O481        O  0.94405908  0.53822669  0.66936769    -0.82000
O482        O  0.92441251  0.61970884  0.70383073    -0.84600
C483        C  0.90752005  0.65554337  0.69898603     1.03000
O484        O  0.89671529  0.68239513  0.65850768    -0.77500
O485        O  0.85622326  0.62583169  0.58023967    -0.77600
C486        C  0.84592062  0.58760731  0.55067257     1.03000
Cr487      Cr  0.90058497  0.55873845  0.55952489     1.93700
Cr488      Cr  0.94282673  0.61309982  0.65872402     1.93200
Cr489      Cr  0.88811107  0.66698399  0.58531339     1.39100
O490        O  0.90997262  0.61272828  0.60182765    -1.22700
O491        O  0.88610885  0.79289113  0.02119886    -0.84900
O492        O  0.91708866  0.76146586  0.12071779    -0.82000
C493        C  0.94235682  0.76308743  0.12911625     0.98500
O494        O  0.95302082  0.80543778  0.12940589    -0.82000
O495        O  0.95976118  0.90571225  0.11368307    -0.84700
C496        C  0.95191493  0.90676099  0.06517877     1.03000
O497        O  0.92683303  0.89909073  0.03300290    -0.77400
O498        O  0.87340783  0.86801494  0.98669171    -0.77600
C499        C  0.87769465  0.82092551  0.98224648     1.03000
O500        O  0.84920780  0.85280178  0.04747191    -0.84900
O501        O  0.88418789  0.82778122  0.15069203    -0.82000
C502        C  0.90573096  0.82063693  0.19354287     0.98500
O503        O  0.92971565  0.82927123  0.19733069    -0.82000
O504        O  0.93103265  0.93087755  0.17420910    -0.84600
C505        C  0.93044360  0.97098878  0.15096902     1.03000
O506        O  0.91944530  0.97000348  0.10163698    -0.77500
O507        O  0.86518544  0.93121247  0.06138204    -0.77600
C508        C  0.84499096  0.90064421  0.04671436     1.03000
Cr509      Cr  0.88548371  0.81251592  0.08559760     1.93700
Cr510      Cr  0.94097733  0.86789248  0.14997433     1.93200
Cr511      Cr  0.89675636  0.91391441  0.04919876     1.39100
O512        O  0.90766934  0.86480564  0.09504976    -1.22700
C513        C  0.86632416  0.70206287  0.76691627    -0.05100
C514        C  0.88795112  0.71366236  0.81713624     0.09100
C515        C  0.91577492  0.70012722  0.83038894    -0.02400
C516        C  0.92219577  0.67875714  0.79258670    -0.00700
C517        C  0.90067657  0.66926889  0.74145501    -0.04300
C518        C  0.87254551  0.67940895  0.72950131     0.02700
C519        C  0.88168131  0.74300603  0.85499248     0.09500
C520        C  0.93796936  0.70899730  0.88282831     0.35400
C521        C  0.84962119  0.66701620  0.67863316     0.38900
C522        C  0.86944000  0.71876545  0.88199991    -0.04700
C523        C  0.86548102  0.74591154  0.92012476     0.02500
C524        C  0.87426968  0.79747027  0.93247251    -0.04300
C525        C  0.88399316  0.82288193  0.90167417    -0.00500
C526        C  0.88766237  0.79566833  0.86319947    -0.03100
C527        C  0.86125323  0.66560382  0.87100341     0.36200
C528        C  0.89154687  0.87637778  0.91073781     0.39800
C529        C  0.85209546  0.72066489  0.94638923     0.38900
C530        C  0.89790099  0.82170883  0.83212795     0.35800
C531        C  0.83761578  0.71493217  0.75319022     0.36500
C532        C  0.95119909  0.67042282  0.80541313     0.39800
N533        N  0.84131799  0.70057585  0.96716875    -0.38300
N534        N  0.85452918  0.62330648  0.86194932    -0.39900
N535        N  0.89761158  0.91908653  0.91740120    -0.37600
N536        N  0.90594389  0.84230534  0.80705706    -0.40000
N537        N  0.95593343  0.71540752  0.92461074    -0.39800
N538        N  0.97435735  0.66433390  0.81553058    -0.37400
N539        N  0.83053153  0.65778833  0.63880020    -0.38500
N540        N  0.81470998  0.72506101  0.74217189    -0.40100
C541        C  0.88958192  0.74925226  0.39872155    -0.05100
C542        C  0.89540132  0.72186264  0.36305906     0.09100
C543        C  0.89682686  0.66816374  0.36571467    -0.02400
C544        C  0.89176271  0.64215432  0.40251815    -0.00700
C545        C  0.88803568  0.66940572  0.44107326    -0.04300
C546        C  0.88639874  0.72358228  0.43788633     0.02700
C547        C  0.89788390  0.74907162  0.32016706     0.09500
C548        C  0.90337800  0.63941502  0.33004387     0.35400
C549        C  0.88117246  0.75387887  0.47430723     0.38900
C550        C  0.92118539  0.78044155  0.33095738    -0.04700
C551        C  0.92326591  0.80562584  0.29032224     0.02500
C552        C  0.90277216  0.79757410  0.23772865    -0.04300
C553        C  0.87981560  0.76474498  0.22724996    -0.00500
C554        C  0.87684557  0.74276983  0.26817318    -0.03100
C555        C  0.94329230  0.78633477  0.38407346     0.36200
C556        C  0.85993258  0.75021392  0.17431412     0.39800
C557        C  0.94641299  0.84032222  0.30317823     0.38900
C558        C  0.85192975  0.71335773  0.25667157     0.35800
C559        C  0.88659897  0.80420431  0.39478804     0.36500
C560        C  0.88713534  0.58770480  0.39612363     0.39800
N561        N  0.96488344  0.86813483  0.31366624    -0.38300
N562        N  0.96089784  0.79103569  0.42645759    -0.39900
N563        N  0.84424419  0.73792893  0.13226838    -0.37600
N564        N  0.83205128  0.68997856  0.24756695    -0.40000
N565        N  0.90861428  0.61663465  0.30156226    -0.39800
N566        N  0.88233446  0.54464788  0.38798506    -0.37400
N567        N  0.87672508  0.77858785  0.50269363    -0.38500
N568        N  0.88428743  0.84804319  0.39173321    -0.40100
C569        C  0.77054794  0.93166712  0.02109911    -0.05100
C570        C  0.76338539  0.97119836  0.98473441     0.09100
C571        C  0.78222870  0.98485081  0.96648858    -0.02400
C572        C  0.80826281  0.96003909  0.98520343    -0.00700
C573        C  0.81617021  0.92224014  0.02373349    -0.04300
C574        C  0.79700819  0.90774536  0.04110384     0.02700
C575        C  0.73664929  0.00043385  0.96758814     0.09500
C576        C  0.77500230  0.02533857  0.92910563     0.35400
C577        C  0.80504250  0.87045923  0.08165856     0.38900
C578        C  0.73487222  0.03880029  0.00027817    -0.04700
C579        C  0.70995950  0.06693615  0.98437301     0.02500
C580        C  0.68633174  0.05620510  0.93591536    -0.04300
C581        C  0.68828569  0.01833129  0.90279180    -0.00500
C582        C  0.71345139  0.99100913  0.91832413    -0.03100
C583        C  0.75873671  0.04896673  0.05072451     0.36200
C584        C  0.66446409  0.00785904  0.85231408     0.39800
C585        C  0.70833561  0.10546361  0.01894454     0.38900
C586        C  0.71554570  0.95315102  0.88370013     0.35800
C587        C  0.75072805  0.91615243  0.03833786     0.36500
C588        C  0.82680910  0.97318898  0.96414427     0.39800
N589        N  0.70701879  0.13630873  0.04644360    -0.38300
N590        N  0.77775018  0.05678090  0.09102836    -0.39900
N591        N  0.64546260  0.99957380  0.81210222    -0.37600
N592        N  0.71734176  0.92320493  0.85594263    -0.40000
N593        N  0.76917975  0.05764118  0.89931117    -0.39800
N594        N  0.84157619  0.98358783  0.94730288    -0.37400
N595        N  0.81138760  0.84113121  0.11441598    -0.38500
N596        N  0.73481870  0.90375154  0.05188673    -0.40100
C597        C  0.52662233  0.07112776  0.01223567    -0.05100
C598        C  0.51183157  0.02481278  0.99391187     0.09100
C599        C  0.98699797  0.01436010  0.90420934    -0.02400
C600        C  0.51862906  0.02877659  0.91697890    -0.00700
C601        C  0.53549125  0.07270883  0.93736358    -0.04300
C602        C  0.53824715  0.09516220  0.98391172     0.02700
C603        C  0.99125970  0.95822115  0.97749152     0.09500
C604        C  0.95887318  0.02777978  0.89359842     0.35400
C605        C  0.55184798  0.14434403  0.00126744     0.38900
C606        C  0.99349842  0.98798015  0.01998804    -0.04700
C607        C  0.98251852  0.96976034  0.05184499     0.02500
C608        C  0.97060983  0.92058201  0.04319285    -0.04300
C609        C  0.97034734  0.88946415  0.00301058    -0.00500
C610        C  0.51290058  0.96522518  0.06253552    -0.03100
C611        C  0.00665368  0.03782846  0.03026854     0.36200
C612        C  0.51360911  0.90082852  0.12448678     0.39800
C613        C  0.98113226  0.00345277  0.09017283     0.38900
C614        C  0.54250411  0.95707629  0.08072643     0.35800
C615        C  0.52963104  0.09424633  0.05996780     0.36500
C616        C  0.51309638  0.00827068  0.86677017     0.39800
N617        N  0.97962776  0.03092230  0.12000862    -0.38300
N618        N  0.01725972  0.07748542  0.03855372    -0.39900
N619        N  0.52552614  0.87136396  0.15653612    -0.37600
N620        N  0.56617052  0.95077338  0.09532104    -0.40000
N621        N  0.93640961  0.03832604  0.88527670    -0.39800
N622        N  0.97141116  0.10434747  0.80533963    -0.37400
N623        N  0.56222042  0.18401734  0.01474044    -0.38500
N624        N  0.53198903  0.11288252  0.09795446    -0.40100
C625        C  0.52292931  0.93485417  0.71165795    -0.05100
C626        C  0.51989376  0.89259072  0.73748976     0.09100
C627        C  0.53717359  0.88813826  0.79144091    -0.02400
C628        C  0.55629477  0.92730157  0.82019115    -0.00700
C629        C  0.55772365  0.97246904  0.79529159    -0.04300
C630        C  0.54195634  0.97419359  0.73993457     0.02700
C631        C  0.49817218  0.85285837  0.70793758     0.09500
C632        C  0.53460465  0.84357432  0.81764844     0.35400
C633        C  0.54458239  0.01638539  0.71096247     0.38900
C634        C  0.50244206  0.81680968  0.67617226    -0.04700
C635        C  0.97264756  0.78077281  0.61670234     0.02500
C636        C  0.95760463  0.76830363  0.64336584    -0.04300
C637        C  0.96309027  0.79535824  0.68943000    -0.00500
C638        C  0.98454797  0.83211153  0.71046740    -0.03100
C639        C  0.52776992  0.81883060  0.67111140     0.36200
C640        C  0.94651479  0.78546872  0.71535176     0.39800
C641        C  0.96755018  0.75248255  0.57003319     0.38900
C642        C  0.99085290  0.85789561  0.75912785     0.35800
C643        C  0.50562269  0.93861771  0.65581357     0.36500
C644        C  0.57401403  0.92067896  0.87547306     0.39800
N645        N  0.48871337  0.71720974  0.58510630    -0.38300
N646        N  0.54796921  0.82037491  0.66714254    -0.39900
N647        N  0.93323632  0.77834549  0.73603874    -0.37600
N648        N  0.99607882  0.87842708  0.79798757    -0.40000
N649        N  0.53235337  0.80817989  0.83845176    -0.39800
N650        N  0.58813225  0.91506172  0.91955655    -0.37400
N651        N  0.54648943  0.04984702  0.68753002    -0.38500
N652        N  0.96219983  0.95387130  0.61907046    -0.40100
C653        C  0.53553767  0.35030133  0.77120155    -0.05100
C654        C  0.51236345  0.35708897  0.78007716     0.09100
C655        C  0.99218856  0.29784034  0.79042633    -0.02400
C656        C  0.52862390  0.28709339  0.84130946    -0.00700
C657        C  0.55125236  0.27815521  0.83068116    -0.04300
C658        C  0.55489356  0.31090090  0.79612947     0.02700
C659        C  0.97220127  0.37400078  0.73207743     0.09500
C660        C  0.96689545  0.29604723  0.79552420     0.35400
C661        C  0.57737992  0.30256759  0.78330107     0.38900
C662        C  0.95405521  0.37082014  0.67796479    -0.04700
C663        C  0.93491321  0.41061010  0.65229316     0.02500
C664        C  0.93406525  0.45426903  0.68043796    -0.04300
C665        C  0.95004141  0.45454947  0.73526378    -0.00500
C666        C  0.96937396  0.41522122  0.76082182    -0.03100
C667        C  0.46837720  0.33752179  0.67633327     0.36200
C668        C  0.94745112  0.49686445  0.76524634     0.39800
C669        C  0.91738725  0.40790359  0.59651746     0.38900
C670        C  0.98775959  0.41896026  0.81635807     0.35800
C671        C  0.53900974  0.38320339  0.73521592     0.36500
C672        C  0.52464620  0.25553245  0.87760244     0.39800
N673        N  0.90322665  0.40520260  0.55203235    -0.38300
N674        N  0.46755276  0.29810412  0.65735009    -0.39900
N675        N  0.94531007  0.53048387  0.78919002    -0.37600
N676        N  0.00257156  0.42197828  0.86061427    -0.40000
N677        N  0.94660362  0.29457444  0.79926888    -0.39800
N678        N  0.52106566  0.23027276  0.90596461    -0.37400
N679        N  0.59524465  0.29620843  0.77279926    -0.38500
N680        N  0.54176642  0.40933931  0.70647754    -0.40100
C681        C  0.58290884  0.21722147  0.64889850    -0.05100
C682        C  0.60988513  0.22063683  0.65331059     0.09100
C683        C  0.63259614  0.19786395  0.69574763    -0.02400
C684        C  0.62871794  0.17403040  0.73481691    -0.00700
C685        C  0.60228880  0.17591096  0.73409584    -0.04300
C686        C  0.57905746  0.19565745  0.68912824     0.02700
C687        C  0.61439875  0.24719906  0.61265747     0.09500
C688        C  0.66024257  0.19951676  0.69950822     0.35400
C689        C  0.55100819  0.19464963  0.68353187     0.38900
C690        C  0.61489786  0.30090086  0.61146144    -0.04700
C691        C  0.61866925  0.32593839  0.57265112     0.02500
C692        C  0.62281316  0.29734246  0.53514738    -0.04300
C693        C  0.62403100  0.24316778  0.53896554    -0.00500
C694        C  0.61904504  0.21856837  0.57638378    -0.03100
C695        C  0.61143510  0.33039627  0.65038835     0.36200
C696        C  0.63081143  0.21188008  0.50509392     0.39800
C697        C  0.61712748  0.38110247  0.57073481     0.38900
C698        C  0.61836469  0.16329915  0.57725953     0.35800
C699        C  0.55898904  0.23567862  0.60255404     0.36500
C700        C  0.65203571  0.14643345  0.77471779     0.39800
N701        N  0.61580622  0.42509537  0.56944321    -0.38300
N702        N  0.60876191  0.35379756  0.68162760    -0.39900
N703        N  0.63620539  0.18671981  0.47818722    -0.37600
N704        N  0.61782105  0.11928592  0.57803441    -0.40000
N705        N  0.68223504  0.20082957  0.70235141    -0.39800
N706        N  0.67067044  0.12417888  0.80620376    -0.37400
N707        N  0.52855962  0.19390064  0.67862657    -0.38500
N708        N  0.53972770  0.24984221  0.56553680    -0.40100
C709        C  0.60988131  0.30504314  0.15729977    -0.05100
C710        C  0.63103139  0.26775741  0.17153323     0.09100
C711        C  0.64684788  0.25480933  0.22410902    -0.02400
C712        C  0.64013622  0.27556893  0.26163869    -0.00700
C713        C  0.61835426  0.31222494  0.24752315    -0.04300
C714        C  0.60386240  0.32774766  0.19517067     0.02700
C715        C  0.63516533  0.23893523  0.13080974     0.09500
C716        C  0.66987518  0.21916055  0.23936075     0.35400
C717        C  0.58311020  0.36778768  0.18018362     0.38900
C718        C  0.64901565  0.26148462  0.10578757    -0.04700
C719        C  0.65018186  0.23580816  0.06396515     0.02500
C720        C  0.63820561  0.18664417  0.04781898    -0.04300
C721        C  0.62789962  0.16152814  0.07784158    -0.00500
C722        C  0.62541459  0.18825104  0.11774427    -0.03100
C723        C  0.66213373  0.31100138  0.12331118     0.36200
C724        C  0.61889078  0.10876737  0.06703036     0.39800
C725        C  0.66441701  0.25945429  0.03845521     0.38900
C726        C  0.61172844  0.16416776  0.14407476     0.35800
C727        C  0.59398478  0.31940242  0.10335172     0.36500
C728        C  0.65466849  0.25606221  0.31401652     0.39800
N729        N  0.67593832  0.27812563  0.01832104    -0.38300
N730        N  0.67280010  0.35034680  0.13760774    -0.39900
N731        N  0.61187353  0.06653552  0.05922541    -0.37600
N732        N  0.60073730  0.14503108  0.16494271    -0.40000
N733        N  0.68826294  0.19088781  0.25131495    -0.39800
N734        N  0.66625756  0.24000665  0.35557463    -0.37400
N735        N  0.56668313  0.40000711  0.16809321    -0.38500
N736        N  0.58139052  0.33085221  0.06026861    -0.40100
C737        C  0.00139381  0.17473491  0.29918088    -0.05100
C738        C  0.51157941  0.13598297  0.26900950     0.09100
C739        C  0.50720565  0.17197815  0.30048250    -0.02400
C740        C  0.52554566  0.21368604  0.32207202    -0.00700
C741        C  0.54966571  0.21823373  0.31502725    -0.04300
C742        C  0.55507775  0.17956851  0.28658672     0.02700
C743        C  0.98285537  0.09952386  0.23656092     0.09500
C744        C  0.48368111  0.16581288  0.31074261     0.35400
C745        C  0.57935389  0.18275477  0.27835399     0.38900
C746        C  0.95588432  0.10807736  0.19464670    -0.04700
C747        C  0.93790702  0.06646832  0.16818592     0.02500
C748        C  0.94714676  0.01589301  0.18244691    -0.04300
C749        C  0.97415465  0.00778882  0.22518648    -0.00500
C750        C  0.99139427  0.04935089  0.25285568    -0.03100
C751        C  0.94696652  0.15970319  0.17791746     0.36200
C752        C  0.98558531  0.95673568  0.23836862     0.39800
C753        C  0.90997856  0.07569019  0.12640261     0.38900
C754        C  0.45978488  0.15791490  0.17700672     0.35800
C755        C  0.97905336  0.16711444  0.31231375     0.36500
C756        C  0.51853799  0.25261494  0.34968391     0.39800
N757        N  0.88760003  0.08300712  0.09319298    -0.38300
N758        N  0.93991965  0.20094043  0.16461423    -0.39900
N759        N  0.99490497  0.91621262  0.24856297    -0.37600
N760        N  0.45607162  0.19872855  0.16067763    -0.40000
N761        N  0.46508971  0.16051374  0.31923377    -0.39800
N762        N  0.51196012  0.28375325  0.37015928    -0.37400
N763        N  0.59865764  0.18489574  0.27157073    -0.38500
N764        N  0.96123207  0.16113797  0.32284208    -0.40100
C765        C  0.51463212  0.55051119  0.22384237    -0.05100
C766        C  0.51861403  0.59935956  0.24678715     0.09100
C767        C  0.54239834  0.60911888  0.29511485    -0.02400
C768        C  0.56178340  0.56981866  0.32115719    -0.00700
C769        C  0.55772018  0.52027857  0.29876260    -0.04300
C770        C  0.53396173  0.51118864  0.24934716     0.02700
C771        C  0.49765322  0.64060211  0.21964654     0.09500
C772        C  0.54664779  0.65971351  0.31824682     0.35400
C773        C  0.52752449  0.46030913  0.22641938     0.38900
C774        C  0.97214034  0.63078717  0.18085905    -0.04700
C775        C  0.95287525  0.67114650  0.15944477     0.02500
C776        C  0.96072991  0.71645677  0.14362342    -0.04300
C777        C  0.98781448  0.71846271  0.14672416    -0.00500
C778        C  0.50107222  0.67288997  0.18501331    -0.03100
C779        C  0.96340637  0.58428620  0.19510991     0.36200
C780        C  0.99657718  0.76166496  0.12751082     0.39800
C781        C  0.92551590  0.66612814  0.15654763     0.38900
C782        C  0.52452277  0.66509047  0.17485883     0.35800
C783        C  0.01923132  0.55777207  0.14223018     0.36500
C784        C  0.58585935  0.58058105  0.37108734     0.39800
N785        N  0.90385560  0.66187490  0.15471150    -0.38300
N786        N  0.95543495  0.54750808  0.20515733    -0.39900
N787        N  0.00397815  0.79611154  0.11286038    -0.37600
N788        N  0.54323416  0.65855846  0.16678652    -0.40000
N789        N  0.54992463  0.70020497  0.33645008    -0.39800
N790        N  0.60502063  0.58918646  0.41102429    -0.37400
N791        N  0.52209406  0.41975759  0.20821950    -0.38500
N792        N  0.00961676  0.55556236  0.09748237    -0.40100
C793        C  0.79019301  0.51054402  0.56280263    -0.05100
C794        C  0.76677980  0.51738394  0.51346723     0.09100
C795        C  0.76879838  0.55136372  0.47835525    -0.02400
C796        C  0.79448193  0.57566854  0.49112841    -0.00700
C797        C  0.81812498  0.56729099  0.53962503    -0.04300
C798        C  0.81569962  0.53582849  0.57603140     0.02700
C799        C  0.74031001  0.48735461  0.49739227     0.09500
C800        C  0.74441238  0.56097337  0.42889000     0.35400
C801        C  0.83973017  0.52838676  0.62659715     0.38900
C802        C  0.72154344  0.50089827  0.51626180    -0.04700
C803        C  0.69602801  0.47418568  0.49882367     0.02500
C804        C  0.68881592  0.43383643  0.46182087    -0.04300
C805        C  0.70808074  0.41929980  0.44429812    -0.00500
C806        C  0.73369467  0.44586657  0.46210390    -0.03100
C807        C  0.72831030  0.54294851  0.55305410     0.36200
C808        C  0.70113078  0.37879871  0.40595058     0.39800
C809        C  0.67729539  0.48800036  0.51960867     0.38900
C810        C  0.75319243  0.43107802  0.44342094     0.35800
C811        C  0.78821490  0.47642834  0.59943190     0.36500
C812        C  0.79669877  0.60915314  0.45427832     0.39800
N813        N  0.66231037  0.49889814  0.53606897    -0.38300
N814        N  0.73374067  0.57638490  0.58256944    -0.39900
N815        N  0.69598409  0.34674142  0.37514032    -0.37600
N816        N  0.76875968  0.41955099  0.42849207    -0.40000
N817        N  0.72488229  0.56863876  0.38948512    -0.39800
N818        N  0.79855674  0.63591896  0.42501257    -0.37400
N819        N  0.85890523  0.52271701  0.66700159    -0.38500
N820        N  0.78655480  0.44929109  0.62863459    -0.40100
C821        C  0.51864722  0.41484566  0.48874734    -0.05100
C822        C  0.50615710  0.46314594  0.47479121     0.09100
C823        C  0.50208850  0.48507555  0.42800129    -0.02400
C824        C  0.51210150  0.46015826  0.39697203    -0.00700
C825        C  0.52800300  0.41521817  0.41453217    -0.04300
C826        C  0.52971442  0.39109184  0.45898833     0.02700
C827        C  0.99366617  0.53408450  0.48366589     0.09500
C828        C  0.99015832  0.56380421  0.38577788     0.35400
C829        C  0.54323861  0.34192158  0.47450639     0.38900
C830        C  0.51073195  0.52200113  0.54794989    -0.04700
C831        C  0.99560032  0.58329268  0.55720735     0.01300
C832        C  0.96946601  0.56248416  0.54732432    -0.04300
C833        C  0.95473081  0.53055074  0.50220274    -0.00500
C834        C  0.96611991  0.51967235  0.46912346    -0.03100
C835        C  0.54019459  0.52852903  0.56371685     0.36200
C836        C  0.92864663  0.50500369  0.49044768     0.39800
C837        C  0.51476457  0.58502088  0.61545496     0.38900
C838        C  0.95012700  0.49030302  0.42138992     0.35800
C839        C  0.52043967  0.39005564  0.53419118     0.36500
C840        C  0.50601923  0.48068495  0.34722334     0.39800
N841        N  0.52792547  0.61342418  0.64880324    -0.38300
N842        N  0.56376475  0.53335482  0.57642337    -0.39900
N843        N  0.90819290  0.48358280  0.48136367    -0.37600
N844        N  0.93738820  0.46745975  0.38314058    -0.40000
N845        N  0.97866357  0.60090196  0.36624154    -0.39800
N846        N  0.50036700  0.49605951  0.30665515    -0.37400
N847        N  0.55385215  0.30252175  0.48642927    -0.38500
N848        N  0.52172283  0.37030078  0.57033258    -0.40100
loop_ 
_geom_bond_atom_site_label_1 
_geom_bond_atom_site_label_2 
_geom_bond_distance 
_geom_bond_site_symmetry_2 
_ccdc_geom_bond_type 
O1          Cr19   1.973       .  S
O1            C9   1.260       .  A
O2          Cr19   2.033       .  S
O2            C3   1.271       .  A
C3            O4   1.256       .  A
C3          C317   1.495       .  S
O4          Cr20   1.963       .  S
O5          Cr20   2.027       .  S
O5            C6   1.270       .  A
C6            O7   1.254       .  A
C6          C401   1.481       .  S
O7          Cr21   1.949       .  S
O8          Cr21   2.026       .  S
O8            C9   1.269       .  A
C9          C268   1.500       .  S
O10         Cr19   2.039       .  S
O10          C18   1.273       .  A
O11         Cr19   1.970       .  S
O11          C12   1.260       .  A
C12          O13   1.272       .  A
C12         C289   1.516       .  S
O13         Cr20   2.028       .  S
O14         Cr20   1.969       .  S
O14          C15   1.258       .  A
C15          O16   1.269       .  A
C15         C345   1.510       .  S
O16         Cr21   2.026       .  S
O17         Cr21   1.958       .  S
O17          C18   1.256       .  A
C18         C380   1.485       .  S
Cr19         O22   1.762       .  S
Cr20         O22   1.763       .  S
Cr21         O22   1.760       .  S
O23         Cr41   2.034       .  S
O23          C31   1.271       .  A
O24         Cr41   1.945       .  S
O24          C25   1.249       .  A
C25          O26   1.274       .  A
C25         C177   1.488       .  S
O26         Cr42   2.065       .  S
O27         Cr42   1.958       .  S
O27          C28   1.259       .  A
C28          O29   1.278       .  A
C28         C233   1.503       .  S
O29         Cr43   2.053       .  S
O30         Cr43   1.962       .  S
O30          C31   1.257       .  A
C31         C296   1.496   1_556  S
O32         Cr41   1.951       .  S
O32          C40   1.255       .  A
O33         Cr41   2.043       .  S
O33          C34   1.272       .  A
C34          O35   1.255       .  A
C34         C205   1.492   1_545  S
O35         Cr42   1.962       .  S
O36         Cr42   2.041       .  S
O36          C37   1.274       .  A
C37          O38   1.259       .  A
C37         C261   1.506       .  S
O38         Cr43   1.970       .  S
O39         Cr43   2.058       .  S
O39          C40   1.278       .  A
C40         C156   1.498       .  S
Cr41         O44   1.759       .  S
Cr42         O44   1.765       .  S
Cr43         O44   1.759       .  S
O45         Cr63   2.038       .  S
O45          C53   1.273       .  A
O46         Cr63   1.949       .  S
O46          C47   1.249       .  A
C47          O48   1.271       .  A
C47         C408   1.488       .  S
O48         Cr64   2.054       .  S
O49         Cr64   1.961       .  S
O49          C50   1.260       .  A
C50          O51   1.272       .  A
C50         C212   1.494       .  S
O51         Cr65   2.021       .  S
O52         Cr65   1.953       .  S
O52          C53   1.255       .  A
C53         C121   1.508       .  S
O54         Cr63   1.960       .  S
O54          C62   1.256       .  A
O55         Cr63   2.052       .  S
O55          C56   1.275       .  A
C56          O57   1.250       .  A
C56         C240   1.506       .  S
O57         Cr64   1.951       .  S
O58         Cr64   2.017       .  S
O58          C59   1.269       .  A
C59          O60   1.263       .  A
C59          C93   1.498       .  S
O60         Cr65   1.970       .  S
O61         Cr65   2.044       .  S
O61          C62   1.275       .  A
C62         C373   1.508       .  S
Cr63         O66   1.752       .  S
Cr64         O66   1.758       .  S
Cr65         O66   1.755       .  S
O67         Cr85   1.949       .  S
O67          C75   1.253   1_554  A
O68         Cr85   2.028       .  S
O68          C69   1.273       .  A
C69          O70   1.260       .  A
C69         C352   1.498       .  S
O70         Cr86   1.965       .  S
O71         Cr86   2.059       .  S
O71          C72   1.273       .  A
C72          O73   1.252       .  A
C72         C184   1.495       .  S
O73         Cr87   1.957       .  S
O74         Cr87   2.020       .  S
O74          C75   1.270   1_554  A
C75         C100   1.505       .  S
O76         Cr85   2.035       .  S
O76          C84   1.273       .  A
O77         Cr85   1.963       .  S
O77          C78   1.259       .  A
C78          O79   1.272       .  A
C78         C128   1.511       .  S
O79         Cr86   2.031       .  S
O80         Cr86   1.959       .  S
O80          C81   1.253       .  A
C81          O82   1.271       .  A
C81         C324   1.492   1_565  S
O82         Cr87   2.038       .  S
O83         Cr87   1.968       .  S
O83          C84   1.259       .  A
C84         C149   1.498       .  S
Cr85         O88   1.764       .  S
Cr86         O88   1.763       .  S
Cr87         O88   1.765       .  S
C89          C90   1.409       .  A
C89          C94   1.410       .  A
C89         C107   1.450       .  S
C90          C95   1.494       .  S
C90          C91   1.408       .  A
C91          C92   1.411       .  A
C91          C96   1.454       .  S
C92          C93   1.424       .  A
C92         C108   1.450       .  S
C93          C94   1.418       .  A
C94          C97   1.453       .  S
C95          C98   1.402       .  A
C95         C102   1.409       .  A
C96         N113   1.156       .  T
C97         N115   1.156       .  T
C98          C99   1.406       .  A
C98         C103   1.455       .  S
C99         C100   1.430       .  A
C99         C105   1.451   1_556  S
C100        C101   1.421       .  A
C101        C102   1.415       .  A
C101        C104   1.451       .  S
C102        C106   1.450       .  S
C103        N110   1.157       .  T
C104        N111   1.157       .  T
C105        N109   1.157       .  T
C106        N112   1.157       .  T
C107        N116   1.159       .  T
C108        N114   1.159       .  T
C117        C118   1.408       .  A
C117        C122   1.411       .  A
C117        C135   1.452       .  S
C118        C123   1.505       .  S
C118        C119   1.411       .  A
C119        C120   1.416       .  A
C119        C124   1.452       .  S
C120        C121   1.420       .  A
C120        C136   1.448       .  S
C121        C122   1.426       .  A
C122        C125   1.453       .  S
C123        C126   1.410       .  A
C123        C130   1.409       .  A
C124        N141   1.157       .  T
C125        N143   1.157       .  T
C126        C127   1.415       .  A
C126        C131   1.452       .  S
C127        C128   1.426       .  A
C127        C133   1.451       .  S
C128        C129   1.425       .  A
C129        C130   1.413       .  A
C129        C132   1.453       .  S
C130        C134   1.451       .  S
C131        N138   1.157       .  T
C132        N139   1.157       .  T
C133        N137   1.158       .  T
C134        N140   1.158       .  T
C135        N144   1.158       .  T
C136        N142   1.157       .  T
C145        C146   1.413   1_556  A
C145        C150   1.416       .  A
C145        C163   1.450       .  S
C146        C151   1.507   1_564  S
C146        C147   1.410       .  A
C147        C148   1.414       .  A
C147        C152   1.451   1_565  S
C148        C149   1.418       .  A
C148        C164   1.451       .  S
C149        C150   1.416   1_554  A
C150        C153   1.451       .  S
C151        C154   1.409   1_545  A
C151        C158   1.415       .  A
C152        N169   1.157       .  T
C153        N171   1.157       .  T
C154        C155   1.413   1_565  A
C154        C159   1.451   1_556  S
C155        C156   1.421       .  A
C155        C161   1.452   1_545  S
C156        C157   1.412       .  A
C157        C158   1.418       .  A
C157        C160   1.448       .  S
C158        C162   1.449       .  S
C159        N166   1.157       .  T
C160        N167   1.157       .  T
C161        N165   1.157   1_556  T
C162        N168   1.157       .  T
C163        N172   1.157       .  T
C164        N170   1.158   1_565  T
C173        C174   1.406       .  A
C173        C178   1.405       .  A
C173        C191   1.452       .  S
C174        C603   1.499   1_455  S
C174        C599   1.416   1_465  A
C175        C598   1.413       .  A
C175        C600   1.411       .  A
C175        C180   1.451   1_545  S
C176        C177   1.409   1_655  A
C176        C599   1.418       .  A
C176        C192   1.448       .  S
C177        C178   1.420   1_545  A
C178        C181   1.452       .  S
C179        C598   1.501   1_554  S
C179        C182   1.406       .  A
C179        C610   1.415   1_545  A
C180        N197   1.157       .  T
C181        N199   1.157       .  T
C182        C183   1.407   1_545  A
C182        C187   1.453   1_554  S
C183        C184   1.423       .  A
C183        C189   1.453       .  S
C184        C185   1.413       .  A
C185        C610   1.419       .  A
C185        C612   1.449       .  S
C186        C603   1.411       .  A
C186        C609   1.410   1_556  A
C186        C190   1.451       .  S
C187        N194   1.157       .  T
C188        C609   1.451   1_556  S
C188        N195   1.157       .  T
C189        N193   1.157   1_564  T
C190        N196   1.157       .  T
C191        N200   1.157   1_556  T
C192        N622   1.157       .  T
N198        C616   1.156   1_565  T
C201        C202   1.407       .  A
C201        C206   1.408       .  A
C201        C219   1.453   1_455  S
C202        C207   1.499       .  S
C202        C203   1.414       .  A
C203        C204   1.416       .  A
C203        C208   1.449       .  S
C204        C205   1.413       .  A
C204        C220   1.450       .  S
C205        C206   1.422       .  A
C206        C209   1.452   1_565  S
C207        C210   1.414   1_455  A
C207        C638   1.410   1_455  A
C208        N225   1.158       .  T
C209        N227   1.158       .  T
C210        C635   1.417       .  A
C210        C215   1.449   1_655  S
C211        C212   1.419       .  A
C211        C634   1.410       .  A
C211        C217   1.451       .  S
C212        C213   1.419       .  A
C213        C214   1.410       .  A
C213        C216   1.453       .  S
C214        C631   1.411       .  A
C214        C218   1.450       .  S
C215        N222   1.157       .  T
C216        N223   1.157       .  T
C217        N645   1.158       .  T
C218        N224   1.158       .  T
C219        N652   1.157       .  T
C220        N226   1.157       .  T
N221        C641   1.157       .  T
N228        C643   1.158       .  T
C229        C230   1.414   1_455  A
C229        C234   1.417       .  A
C229        C247   1.452       .  S
C230        C659   1.509       .  S
C230        C655   1.411       .  A
C231        C654   1.407       .  A
C231        C656   1.408       .  A
C231        C236   1.451       .  S
C232        C233   1.420       .  A
C232        C655   1.414   1_455  A
C232        C248   1.452       .  S
C233        C234   1.419       .  A
C234        C237   1.449       .  S
C235        C654   1.494       .  S
C235        C238   1.409       .  A
C235        C242   1.404       .  A
C236        N253   1.158       .  T
C237        N255   1.158       .  T
C238        C239   1.413       .  A
C238        C667   1.451       .  S
C239        C240   1.419       .  A
C239        C245   1.449       .  S
C240        C241   1.432       .  A
C241        C242   1.409       .  A
C241        C244   1.453       .  S
C242        C246   1.454       .  S
C243        C662   1.450       .  S
C243        N250   1.157       .  T
C244        N251   1.158       .  T
C245        N249   1.157       .  T
C246        N252   1.157       .  T
C247        N256   1.157       .  T
C248        N254   1.157       .  T
C257        C258   1.412       .  A
C257        C262   1.415       .  A
C257        C275   1.451       .  S
C258        C263   1.506       .  S
C258        C259   1.409       .  A
C259        C260   1.414       .  A
C259        C264   1.452       .  S
C260        C261   1.425       .  A
C260        C276   1.452       .  S
C261        C262   1.418       .  A
C262        C265   1.450       .  S
C263        C266   1.412       .  A
C263        C270   1.410       .  A
C264        N281   1.157       .  T
C265        N283   1.157       .  T
C266        C267   1.415       .  A
C266        C271   1.451       .  S
C267        C268   1.419       .  A
C267        C273   1.451       .  S
C268        C269   1.419       .  A
C269        C270   1.413       .  A
C269        C272   1.451       .  S
C270        C274   1.450       .  S
C271        N278   1.157       .  T
C272        N279   1.157       .  T
C273        N277   1.158       .  T
C274        N280   1.158       .  T
C275        N284   1.157       .  T
C276        N282   1.158       .  T
C285        C286   1.408       .  A
C285        C290   1.414       .  A
C285        C303   1.452       .  S
C286        C291   1.504       .  S
C286        C287   1.409       .  A
C287        C288   1.415       .  A
C287        C292   1.452       .  S
C288        C289   1.426       .  A
C288        C304   1.451       .  S
C289        C290   1.429       .  A
C290        C293   1.453       .  S
C291        C294   1.414       .  A
C291        C298   1.410       .  A
C292        N309   1.157       .  T
C293        N311   1.157       .  T
C294        C295   1.416       .  A
C294        C299   1.452       .  S
C295        C296   1.416       .  A
C295        C301   1.449       .  S
C296        C297   1.418       .  A
C297        C298   1.411       .  A
C297        C300   1.452       .  S
C298        C302   1.451       .  S
C299        N306   1.157       .  T
C300        N307   1.157       .  T
C301        N305   1.158       .  T
C302        N308   1.158       .  T
C303        N312   1.158       .  T
C304        N310   1.158       .  T
C313        C738   1.411       .  A
C313        C742   1.414       .  A
C313        C331   1.451       .  S
C314        C743   1.504   1_455  S
C314        C315   1.413       .  A
C314        C737   1.411       .  A
C315        C316   1.412       .  A
C315        C320   1.451       .  S
C316        C317   1.416       .  A
C316        C332   1.451       .  S
C317        C318   1.419       .  A
C318        C737   1.414       .  A
C318        C321   1.451       .  S
C319        C738   1.496       .  S
C319        C322   1.405       .  A
C319        C326   1.414       .  A
C320        N337   1.157       .  T
C321        N339   1.157       .  T
C322        C323   1.408       .  A
C322        C327   1.453       .  S
C323        C324   1.426       .  A
C323        C329   1.453   1_545  S
C324        C325   1.413       .  A
C325        C326   1.413       .  A
C325        C328   1.451       .  S
C326        C754   1.450       .  S
C327        N334   1.157       .  T
C328        N335   1.157       .  T
C329        N333   1.158       .  T
C330        C750   1.452   1_455  S
C330        N336   1.158       .  T
C331        N340   1.158       .  T
C332        N338   1.157       .  T
C341        C342   1.408       .  A
C341        C346   1.414       .  A
C341        C783   1.450       .  S
C342        C347   1.501   1_455  S
C342        C343   1.410       .  A
C343        C344   1.413       .  A
C343        C348   1.452       .  S
C344        C345   1.424       .  A
C344        C360   1.451       .  S
C345        C346   1.423       .  A
C346        C349   1.452       .  S
C347        C354   1.405   1_655  A
C347        C774   1.411       .  A
C348        N365   1.157       .  T
C349        N367   1.157       .  T
C350        C351   1.412       .  A
C350        C771   1.411       .  A
C350        C355   1.449       .  S
C351        C352   1.418       .  A
C351        C357   1.452       .  S
C352        C353   1.419       .  A
C353        C778   1.413       .  A
C353        C356   1.452       .  S
C354        C777   1.412   1_455  A
C354        C358   1.453       .  S
C355        N362   1.156       .  T
C356        N363   1.157       .  T
C357        N361   1.158       .  T
C358        N364   1.157       .  T
C359        C765   1.452       .  S
C359        N368   1.157       .  T
C360        N366   1.158       .  T
C369        C370   1.405       .  A
C369        C374   1.409       .  A
C369        C387   1.454       .  S
C370        C375   1.500       .  S
C370        C371   1.411       .  A
C371        C372   1.418       .  A
C371        C376   1.449       .  S
C372        C373   1.421       .  A
C372        C388   1.450       .  S
C373        C374   1.427       .  A
C374        C377   1.450       .  S
C375        C378   1.412       .  A
C375        C382   1.411       .  A
C376        N393   1.158       .  T
C377        N395   1.157       .  T
C378        C379   1.413       .  A
C378        C383   1.450       .  S
C379        C380   1.414       .  A
C379        C385   1.451       .  S
C380        C381   1.414       .  A
C381        C382   1.412       .  A
C381        C384   1.452       .  S
C382        C386   1.450       .  S
C383        N390   1.157       .  T
C384        N391   1.157       .  T
C385        N389   1.158       .  T
C386        N392   1.157       .  T
C387        N396   1.157       .  T
C388        N394   1.157       .  T
C397        C398   1.413       .  A
C397        C402   1.404       .  A
C397        C415   1.452       .  S
C398        C827   1.488   1_455  S
C398        C399   1.410       .  A
C399        C400   1.409       .  A
C399        C828   1.451   1_455  S
C400        C401   1.413       .  A
C400        C416   1.445       .  S
C401        C402   1.412       .  A
C402        C405   1.452       .  S
C403        C822   1.492       .  S
C403        C410   1.403       .  A
C403        C830   1.414       .  A
C404        C823   1.451       .  S
C404        N421   1.157       .  T
C405        N423   1.157       .  T
C406        C827   1.411   1_455  A
C406        C831   1.417   1_455  A
C406        C411   1.448       .  S
C407        C408   1.411       .  A
C407        C830   1.417       .  A
C407        C837   1.449       .  S
C408        C409   1.421       .  A
C409        C410   1.402       .  A
C409        C412   1.451       .  S
C410        C414   1.453       .  S
C411        N418   1.157       .  T
C412        N419   1.156       .  T
C413        C831   1.449   1_455  S
C413        N417   1.157       .  T
C414        N420   1.157       .  T
C415        N424   1.158       .  T
C416        N422   1.156       .  T
O425       Cr443   1.962       .  S
O425        C433   1.254       .  A
O426       Cr443   2.038       .  S
O426        C427   1.273       .  A
C427        O428   1.253       .  A
C427        C741   1.497       .  S
O428       Cr444   1.947       .  S
O429       Cr444   2.057       .  S
O429        C430   1.277       .  A
C430        O431   1.252       .  A
C430        C825   1.487       .  S
O431       Cr445   1.938       .  S
O432       Cr445   2.034       .  S
O432        C433   1.271       .  A
C433        C692   1.511       .  S
O434       Cr443   2.045       .  S
O434        C442   1.277       .  A
O435       Cr443   1.961       .  S
O435        C436   1.257       .  A
C436        O437   1.276       .  A
C436        C713   1.504       .  S
O437       Cr444   2.048       .  S
O438       Cr444   1.965       .  S
O438        C439   1.255       .  A
C439        O440   1.272       .  A
C439        C769   1.503       .  S
O440       Cr445   2.042       .  S
O441       Cr445   1.960       .  S
O441        C442   1.260       .  A
C442        C804   1.495       .  S
Cr443       O446   1.757       .  S
Cr444       O446   1.761       .  S
Cr445       O446   1.763       .  S
O447       Cr465   2.024       .  S
O447        C455   1.269       .  A
O448       Cr465   1.961       .  S
O448        C449   1.254       .  A
C449        O450   1.273       .  A
C449        C601   1.492       .  S
O450       Cr466   2.039       .  S
O451       Cr466   1.954       .  S
O451        C452   1.256       .  A
C452        O453   1.270       .  A
C452        C657   1.493       .  S
O453       Cr467   2.025       .  S
O454       Cr467   1.973       .  S
O454        C455   1.260       .  A
C455        C720   1.497   1_556  S
O456       Cr465   1.967       .  S
O456        C464   1.258       .  A
O457       Cr465   2.033       .  S
O457        C458   1.270       .  A
C458        O459   1.252       .  A
C458        C629   1.510   1_545  S
O459       Cr466   1.955       .  S
O460       Cr466   2.025       .  S
O460        C461   1.271       .  A
C461        O462   1.261       .  A
C461        C685   1.512       .  S
O462       Cr467   1.971       .  S
O463       Cr467   2.031       .  S
O463        C464   1.272       .  A
C464        C580   1.489       .  S
Cr465       O468   1.763       .  S
Cr466       O468   1.759       .  S
Cr467       O468   1.765       .  S
O469       Cr487   2.014       .  S
O469        C477   1.267       .  A
O470       Cr487   1.964       .  S
O470        C471   1.245       .  A
C471        O472   1.268       .  A
C471        C832   1.500       .  S
O472       Cr488   2.037       .  S
O473       Cr488   1.971       .  S
O473        C474   1.253       .  A
C474        O475   1.262       .  A
C474        C636   1.483       .  S
O475       Cr489   2.011       .  S
O476       Cr489   2.007       .  S
O476        C477   1.265       .  A
C477        C545   1.516       .  S
O478       Cr487   1.999       .  S
O478        C486   1.261       .  A
O479       Cr487   2.012       .  S
O479        C480   1.273       .  A
C480        O481   1.265       .  A
C480        C664   1.493       .  S
O481       Cr488   1.991       .  S
O482       Cr488   2.002       .  S
O482        C483   1.272       .  A
C483        O484   1.268       .  A
C483        C517   1.494       .  S
O484       Cr489   1.998       .  S
O485       Cr489   1.988       .  S
O485        C486   1.260       .  A
C486        C797   1.485       .  S
Cr487       O490   1.776       .  S
Cr488       O490   1.771       .  S
Cr489       O490   1.770       .  S
O491       Cr509   1.961       .  S
O491        C499   1.257   1_554  A
O492       Cr509   2.036       .  S
O492        C493   1.274       .  A
C493        O494   1.254       .  A
C493        C776   1.509       .  S
O494       Cr510   1.951       .  S
O495       Cr510   2.055       .  S
O495        C496   1.274       .  A
C496        O497   1.249       .  A
C496        C608   1.484       .  S
O497       Cr511   1.939       .  S
O498       Cr511   2.037   1_556  S
O498        C499   1.273       .  A
C499        C524   1.500       .  S
O500       Cr509   2.043       .  S
O500        C508   1.274       .  A
O501       Cr509   1.973       .  S
O501        C502   1.261       .  A
C502        O503   1.274       .  A
C502        C552   1.512       .  S
O503       Cr510   2.043       .  S
O504       Cr510   1.961       .  S
O504        C505   1.255       .  A
C505        O506   1.274       .  A
C505        C748   1.498   1_565  S
O506       Cr511   2.048       .  S
O507       Cr511   1.958       .  S
O507        C508   1.257       .  A
C508        C573   1.492       .  S
Cr509       O512   1.760       .  S
Cr510       O512   1.760       .  S
Cr511       O512   1.763       .  S
C513        C514   1.408       .  A
C513        C518   1.412       .  A
C513        C531   1.452       .  S
C514        C519   1.504       .  S
C514        C515   1.414       .  A
C515        C516   1.415       .  A
C515        C520   1.448       .  S
C516        C517   1.414       .  A
C516        C532   1.451       .  S
C517        C518   1.420       .  A
C518        C521   1.450       .  S
C519        C522   1.410       .  A
C519        C526   1.412       .  A
C520        N537   1.157       .  T
C521        N539   1.157       .  T
C522        C523   1.413       .  A
C522        C527   1.451       .  S
C523        C524   1.420       .  A
C523        C529   1.452       .  S
C524        C525   1.417       .  A
C525        C526   1.415       .  A
C525        C528   1.450       .  S
C526        C530   1.451       .  S
C527        N534   1.157       .  T
C528        N535   1.157       .  T
C529        N533   1.158       .  T
C530        N536   1.157       .  T
C531        N540   1.157       .  T
C532        N538   1.157       .  T
C541        C542   1.411       .  A
C541        C546   1.418       .  A
C541        C559   1.451       .  S
C542        C547   1.514       .  S
C542        C543   1.413       .  A
C543        C544   1.417       .  A
C543        C548   1.452       .  S
C544        C545   1.419       .  A
C544        C560   1.446       .  S
C545        C546   1.427       .  A
C546        C549   1.451       .  S
C547        C550   1.414       .  A
C547        C554   1.411       .  A
C548        N565   1.157       .  T
C549        N567   1.157       .  T
C550        C551   1.420       .  A
C550        C555   1.451       .  S
C551        C552   1.421       .  A
C551        C557   1.450       .  S
C552        C553   1.424       .  A
C553        C554   1.413       .  A
C553        C556   1.452       .  S
C554        C558   1.452       .  S
C555        N562   1.157       .  T
C556        N563   1.157       .  T
C557        N561   1.158       .  T
C558        N564   1.158       .  T
C559        N568   1.157       .  T
C560        N566   1.157       .  T
C569        C570   1.414   1_554  A
C569        C574   1.416       .  A
C569        C587   1.450       .  S
C570        C575   1.502   1_565  S
C570        C571   1.409       .  A
C571        C572   1.410       .  A
C571        C576   1.451   1_565  S
C572        C573   1.419   1_556  A
C572        C588   1.452       .  S
C573        C574   1.412       .  A
C574        C577   1.449       .  S
C575        C578   1.412   1_556  A
C575        C582   1.412   1_545  A
C576        N593   1.157       .  T
C577        N595   1.157       .  T
C578        C579   1.412   1_554  A
C578        C583   1.451       .  S
C579        C580   1.414       .  A
C579        C585   1.451   1_556  S
C580        C581   1.416       .  A
C581        C582   1.414   1_545  A
C581        C584   1.452       .  S
C582        C586   1.450       .  S
C583        N590   1.157       .  T
C584        N591   1.157   1_545  T
C585        N589   1.158       .  T
C586        N592   1.158       .  T
C587        N596   1.157       .  T
C588        N594   1.158       .  T
C597        C598   1.411   1_554  A
C597        C602   1.414   1_554  A
C597        C615   1.450       .  S
C599        C604   1.449       .  S
C600        C601   1.412       .  A
C600        C616   1.448       .  S
C601        C602   1.416       .  A
C602        C605   1.450   1_556  S
C603        C606   1.413   1_556  A
C604        N621   1.157       .  T
C605        N623   1.157       .  T
C606        C607   1.413       .  A
C606        C611   1.451   1_665  S
C607        C608   1.411       .  A
C607        C613   1.447   1_565  S
C608        C609   1.415       .  A
C610        C614   1.449       .  S
C611        N618   1.157       .  T
C612        N619   1.157       .  T
C613        N617   1.155       .  T
C614        N620   1.157       .  T
C615        N624   1.157       .  T
C625        C626   1.406       .  A
C625        C630   1.411       .  A
C625        C643   1.453       .  S
C626        C631   1.497       .  S
C626        C627   1.409       .  A
C627        C628   1.413       .  A
C627        C632   1.452       .  S
C628        C629   1.423       .  A
C628        C644   1.450       .  S
C629        C630   1.430       .  A
C630        C633   1.453   1_565  S
C631        C634   1.409       .  A
C632        N649   1.157       .  T
C633        N651   1.158       .  T
C634        C639   1.452       .  S
C635        C636   1.413       .  A
C635        C641   1.450       .  S
C636        C637   1.414       .  A
C637        C638   1.407       .  A
C637        C640   1.451       .  S
C638        C642   1.453       .  S
C639        N646   1.156       .  T
C640        N647   1.157       .  T
C642        N648   1.157       .  T
C644        N650   1.158       .  T
C653        C654   1.409       .  A
C653        C658   1.412       .  A
C653        C671   1.452       .  S
C655        C660   1.450       .  S
C656        C657   1.420       .  A
C656        C672   1.452       .  S
C657        C658   1.421       .  A
C658        C661   1.451       .  S
C659        C662   1.415       .  A
C659        C666   1.412       .  A
C660        N677   1.158       .  T
C661        N679   1.158       .  T
C662        C663   1.417       .  A
C663        C664   1.414       .  A
C663        C669   1.448       .  S
C664        C665   1.416       .  A
C665        C666   1.413       .  A
C665        C668   1.452       .  S
C666        C670   1.450       .  S
C667        N674   1.157       .  T
C668        N675   1.157       .  T
C669        N673   1.157       .  T
C670        N676   1.157   1_655  T
C671        N680   1.157       .  T
C672        N678   1.157       .  T
C681        C682   1.410       .  A
C681        C686   1.416       .  A
C681        C699   1.451       .  S
C682        C687   1.505       .  S
C682        C683   1.408       .  A
C683        C684   1.412       .  A
C683        C688   1.452       .  S
C684        C685   1.425       .  A
C684        C700   1.451       .  S
C685        C686   1.425       .  A
C686        C689   1.452       .  S
C687        C690   1.412       .  A
C687        C694   1.407       .  A
C688        N705   1.157       .  T
C689        N707   1.157       .  T
C690        C691   1.417       .  A
C690        C695   1.451       .  S
C691        C692   1.422       .  A
C691        C697   1.451       .  S
C692        C693   1.427       .  A
C693        C694   1.412       .  A
C693        C696   1.452       .  S
C694        C698   1.453       .  S
C695        N702   1.158       .  T
C696        N703   1.158       .  T
C697        N701   1.157       .  T
C698        N704   1.157       .  T
C699        N708   1.157       .  T
C700        N706   1.158       .  T
C709        C710   1.413       .  A
C709        C714   1.417       .  A
C709        C727   1.450       .  S
C710        C715   1.505       .  S
C710        C711   1.407       .  A
C711        C712   1.412       .  A
C711        C716   1.452       .  S
C712        C713   1.426       .  A
C712        C728   1.452       .  S
C713        C714   1.416       .  A
C714        C717   1.449       .  S
C715        C718   1.411       .  A
C715        C722   1.413       .  A
C716        N733   1.157       .  T
C717        N735   1.157       .  T
C718        C719   1.415       .  A
C718        C723   1.450       .  S
C719        C720   1.417       .  A
C719        C725   1.451       .  S
C720        C721   1.417       .  A
C721        C722   1.412       .  A
C721        C724   1.450       .  S
C722        C726   1.452       .  S
C723        N730   1.157       .  T
C724        N731   1.158       .  T
C725        N729   1.157       .  T
C726        N732   1.157       .  T
C727        N736   1.157       .  T
C728        N734   1.158       .  T
C737        C755   1.450   1_455  S
C738        C739   1.405       .  A
C739        C740   1.408       .  A
C739        C744   1.453       .  S
C740        C741   1.424       .  A
C740        C756   1.450       .  S
C741        C742   1.418       .  A
C742        C745   1.450       .  S
C743        C746   1.414       .  A
C743        C750   1.408       .  A
C744        N761   1.157       .  T
C745        N763   1.156       .  T
C746        C747   1.418       .  A
C746        C751   1.450       .  S
C747        C748   1.415       .  A
C747        C753   1.449       .  S
C748        C749   1.423       .  A
C749        C750   1.409       .  A
C749        C752   1.453   1_545  S
C751        N758   1.157       .  T
C752        N759   1.157       .  T
C753        N757   1.158       .  T
C754        N760   1.158       .  T
C755        N764   1.157       .  T
C756        N762   1.157       .  T
C765        C766   1.407       .  A
C765        C770   1.412       .  A
C766        C771   1.502       .  S
C766        C767   1.411       .  A
C767        C768   1.416       .  A
C767        C772   1.450       .  S
C768        C769   1.417       .  A
C768        C784   1.450       .  S
C769        C770   1.426       .  A
C770        C773   1.453       .  S
C771        C778   1.410       .  A
C772        N789   1.157       .  T
C773        N791   1.158       .  T
C774        C775   1.413       .  A
C774        C779   1.449       .  S
C775        C776   1.422       .  A
C775        C781   1.453       .  S
C776        C777   1.430       .  A
C777        C780   1.452       .  S
C778        C782   1.450       .  S
C779        N786   1.157       .  T
C780        N787   1.158   1_655  T
C781        N785   1.157       .  T
C782        N788   1.158       .  T
C783        N792   1.157       .  T
C784        N790   1.157       .  T
C793        C794   1.413       .  A
C793        C798   1.414       .  A
C793        C811   1.450       .  S
C794        C799   1.505       .  S
C794        C795   1.414       .  A
C795        C796   1.413       .  A
C795        C800   1.450       .  S
C796        C797   1.410       .  A
C796        C812   1.450       .  S
C797        C798   1.413       .  A
C798        C801   1.451       .  S
C799        C802   1.411       .  A
C799        C806   1.413       .  A
C800        N817   1.157       .  T
C801        N819   1.158       .  T
C802        C803   1.413       .  A
C802        C807   1.450       .  S
C803        C804   1.419       .  A
C803        C809   1.452       .  S
C804        C805   1.414       .  A
C805        C806   1.415       .  A
C805        C808   1.448       .  S
C806        C810   1.451       .  S
C807        N814   1.158       .  T
C808        N815   1.157       .  T
C809        N813   1.157       .  T
C810        N816   1.157       .  T
C811        N820   1.157       .  T
C812        N818   1.157       .  T
C821        C822   1.407       .  A
C821        C826   1.408       .  A
C821        C839   1.451       .  S
C822        C823   1.411       .  A
C823        C824   1.411       .  A
C824        C825   1.411       .  A
C824        C840   1.444       .  S
C825        C826   1.419       .  A
C826        C829   1.451       .  S
C827        C834   1.399       .  A
C828        N845   1.157       .  T
C829        N847   1.157       .  T
C830        C835   1.449       .  S
C831        C832   1.417       .  A
C832        C833   1.434       .  A
C833        C834   1.399       .  A
C833        C836   1.453       .  S
C834        C838   1.456       .  S
C835        N842   1.157       .  T
C836        N843   1.158       .  T
C837        N841   1.157       .  T
C838        N844   1.157       .  T
C839        N848   1.157       .  T
C840        N846   1.155       .  T
