geometry optimzed in LAMMPS
_audit_creation_date              2020-12-01 
_audit_creation_method            'lammps2cif' 
_symmetry_space_group_name_H-M    'P1' 
_symmetry_Int_Tables_number       1 
_symmetry_cell_setting            triclinic 
loop_ 
_symmetry_equiv_pos_as_xyz 
  x,y,z 
_cell_length_a                    58.31256216 
_cell_length_b                    31.22279713326818 
_cell_length_c                    57.97979476117038 
_cell_angle_alpha                 89.80922162992158 
_cell_angle_beta                  90.21319957351876 
_cell_angle_gamma                 90.01415824020722 
loop_ 
_atom_site_label 
_atom_site_type_symbol 
_atom_site_fract_x 
_atom_site_fract_y 
_atom_site_fract_z 
_atom_site_charge 
Zr1        Zr  0.60529723  0.23271146  0.85671431     2.17500
O2          O  0.57697361  0.19188498  0.83480761    -0.51800
O3          O  0.61537159  0.15846479  0.86663128    -0.75000
O4          O  0.61578568  0.22341019  0.81590659    -0.81800
O5          O  0.55969596  0.26704031  0.90113687    -0.83500
O6          O  0.65092213  0.25280107  0.81044497    -0.79100
O7          O  0.56504941  0.23085906  0.86751384    -0.90800
O8          O  0.64168548  0.15647237  0.89542205    -0.76700
O9          O  0.64542592  0.22814842  0.86324451    -0.86200
O10         O  0.61050237  0.23312959  0.89763964    -0.85900
O11         O  0.62035481  0.29610395  0.83843107    -0.72700
O12         O  0.58922176  0.29884774  0.87055908    -0.84800
Zr13       Zr  0.65274948  0.35785397  0.89924634     2.26400
Zr14       Zr  0.66074365  0.29111397  0.84533809     2.06300
Zr15       Zr  0.59588094  0.30013743  0.91122978     2.10000
Zr16       Zr  0.65069648  0.22973378  0.90407301     1.78800
O17         O  0.56499908  0.34971923  0.92037583    -0.93600
O18         O  0.68719753  0.19694844  0.89392720    -0.41400
O19         O  0.63621813  0.29633535  0.91807126    -0.78000
O20         O  0.66776052  0.29020949  0.88614951    -0.96700
O21         O  0.64600956  0.35810958  0.85867856    -0.90000
O22         O  0.61213120  0.36260866  0.89373302    -0.92900
C23         C  0.62851852  0.13814507  0.88082322     1.00900
C24         C  0.55259734  0.24428039  0.88419077     1.13800
C25         C  0.63311157  0.23280492  0.80312088     1.04600
O26         O  0.69135576  0.24100904  0.83622982    -0.95000
O27         O  0.69692645  0.32466071  0.85395486    -0.90800
O28         O  0.69380087  0.35779040  0.88864071    -0.83900
C29         C  0.70554730  0.34437816  0.87127178     1.11200
O30         O  0.57585964  0.35386211  0.82365204    -0.97000
Zr31       Zr  0.60543393  0.36123941  0.85323111     1.88900
O32         O  0.64475461  0.43147669  0.88672532    -0.73600
O33         O  0.66975255  0.33924471  0.81350073    -0.52900
O34         O  0.61611259  0.39040868  0.81573746    -0.97600
O35         O  0.56960656  0.39504513  0.86489801    -0.54800
O36         O  0.61660870  0.43395753  0.85978027    -0.74200
C37         C  0.63142241  0.45192153  0.87279107     0.98200
O38         O  0.67553134  0.40438324  0.92416211    -0.63000
O39         O  0.58651295  0.25356609  0.94367761    -0.57800
O40         O  0.64360756  0.36375541  0.94038681    -0.94500
O41         O  0.60728576  0.33929079  0.94537928    -0.92900
O42         O  0.63829087  0.19932194  0.94070265    -0.93300
O43         O  0.67935333  0.23816277  0.93441343    -0.92000
C44         C  0.62570706  0.35711312  0.95283343     1.17000
H45         H  0.60264384  0.20935058  0.90482681     0.33000
H46         H  0.68368312  0.28549166  0.88982668     0.43800
H47         H  0.60606491  0.38824232  0.90074317     0.37300
H48         H  0.61674036  0.29826057  0.82222885     0.33800
H49         H  0.68899423  0.17274519  0.90485222     0.25600
H50         H  0.68147377  0.32380046  0.80443656     0.31500
H51         H  0.63118001  0.40425966  0.81827916     0.37500
H52         H  0.64803195  0.17366351  0.94297155     0.31900
H53         H  0.59956034  0.25651907  0.95453108     0.30800
H54         H  0.55803752  0.33808923  0.93463514     0.32500
H55         H  0.57383356  0.41500819  0.87743941     0.31400
H56         H  0.67783883  0.26834879  0.93936725     0.35400
H57         H  0.68809364  0.38623031  0.93027863     0.28200
H58         H  0.58548650  0.16818311  0.82742936     0.32400
H59         H  0.57082076  0.38340482  0.81997092     0.35300
H60         H  0.57356319  0.26793758  0.95148332     0.27900
H61         H  0.68315406  0.42508045  0.91371922     0.40700
H62         H  0.70032299  0.23819624  0.85068928     0.30800
H63         H  0.68436958  0.18312304  0.87883356     0.38400
H64         H  0.56084341  0.37199689  0.87264917     0.30300
H65         H  0.65588801  0.33901841  0.80359266     0.30300
H66         H  0.57210897  0.21080174  0.82194824     0.30600
Zr67       Zr  0.60550641  0.73279494  0.85459874     2.17500
O68         O  0.57610098  0.69634820  0.83191427    -0.51800
O69         O  0.61663417  0.65818389  0.86240573    -0.75000
O70         O  0.61574876  0.72461409  0.81358654    -0.81800
O71         O  0.56045579  0.76537082  0.90020307    -0.83500
O72         O  0.65081177  0.75455585  0.80821974    -0.79100
O73         O  0.56597424  0.72507590  0.86813168    -0.90800
O74         O  0.64378315  0.65588333  0.89034472    -0.76700
O75         O  0.64574845  0.72810189  0.86081804    -0.86200
O76         O  0.61121172  0.73160056  0.89541076    -0.85900
O77         O  0.62043462  0.79718607  0.83704673    -0.72700
O78         O  0.58980781  0.79884309  0.86908414    -0.84800
Zr79       Zr  0.65399272  0.85587667  0.89856339     2.26400
Zr80       Zr  0.66093423  0.79167782  0.84338531     2.06300
Zr81       Zr  0.59675521  0.79814686  0.90966456     2.10000
Zr82       Zr  0.65141586  0.72803642  0.90163061     1.78800
O83         O  0.56555023  0.84703766  0.91871681    -0.93600
O84         O  0.68887187  0.69663818  0.89389597    -0.41400
O85         O  0.63712785  0.79386152  0.91652443    -0.78000
O86         O  0.66842518  0.78877857  0.88411086    -0.96700
O87         O  0.64694644  0.85844679  0.85796927    -0.90000
O88         O  0.61335000  0.86121479  0.89329084    -0.92900
C89         C  0.63054700  0.63776381  0.87579309     1.00900
C90         C  0.55338059  0.73965585  0.88452280     1.13800
C91         C  0.63311220  0.73431390  0.80088916     1.04600
O92         O  0.69119781  0.74263410  0.83170671    -0.95000
O93         O  0.69783834  0.82212422  0.85221366    -0.90800
O94         O  0.69489537  0.85627457  0.88662851    -0.83900
C95         C  0.70662744  0.84205929  0.86937869     1.11200
O96         O  0.57467136  0.85937242  0.82535965    -0.97000
Zr97       Zr  0.60632659  0.86230644  0.85294526     1.88900
O98         O  0.64542518  0.93116242  0.88938978    -0.73600
O99         O  0.66891533  0.84306275  0.81276395    -0.52900
O100        O  0.61692507  0.89168443  0.81546704    -0.97600
O101        O  0.57113626  0.89713106  0.86563269    -0.54800
O102        O  0.61808247  0.93437230  0.86156987    -0.74200
C103        C  0.63204960  0.95207283  0.87565882     0.98200
O104        O  0.67873455  0.89485844  0.92528444    -0.63000
O105        O  0.58802016  0.75031132  0.94172002    -0.57800
O106        O  0.64400088  0.85911484  0.93970984    -0.94500
O107        O  0.60712586  0.83704148  0.94399158    -0.92900
O108        O  0.63738605  0.69417151  0.93673937    -0.93300
O109        O  0.67843616  0.73542506  0.93353305    -0.92000
C110        C  0.62578463  0.85314078  0.95184930     1.17000
H111        H  0.60340778  0.70754884  0.90237879     0.33000
H112        H  0.68437106  0.78369941  0.88756606     0.43800
H113        H  0.60730833  0.88641294  0.90076834     0.37300
H114        H  0.61665418  0.79975841  0.82089472     0.33800
H115        H  0.68913239  0.66962161  0.90288701     0.25600
H116        H  0.68135355  0.82968967  0.80370988     0.31500
H117        H  0.61125431  0.92157386  0.81554582     0.37500
H118        H  0.64662327  0.66772538  0.93838600     0.31900
H119        H  0.60209233  0.75019541  0.95132158     0.30800
H120        H  0.55978826  0.83727236  0.93389176     0.32500
H121        H  0.57599263  0.91898473  0.87697172     0.31400
H122        H  0.68684396  0.76230997  0.93024961     0.35400
H123        H  0.69099292  0.87451500  0.92982096     0.28200
H124        H  0.58381751  0.67153986  0.82469929     0.32400
H125        H  0.57150300  0.88944049  0.82087471     0.35300
H126        H  0.57661266  0.76605593  0.95103562     0.27900
H127        H  0.68651583  0.91706010  0.91592007     0.40700
H128        H  0.68446009  0.71367695  0.83338589     0.30800
H129        H  0.68804366  0.68734993  0.87760314     0.38400
H130        H  0.56309309  0.87513396  0.87489726     0.30300
H131        H  0.65531636  0.84179642  0.80251442     0.30300
H132        H  0.57230585  0.71593701  0.81898727     0.30600
Zr133      Zr  0.60366432  0.20655514  0.65068265     2.17500
O134        O  0.57478605  0.24347128  0.67361985    -0.51800
O135        O  0.61418467  0.28106817  0.64176736    -0.75000
O136        O  0.61447768  0.21399189  0.69169494    -0.81800
O137        O  0.55889650  0.18049956  0.60326507    -0.83500
O138        O  0.64869420  0.18074964  0.69710593    -0.79100
O139        O  0.56353867  0.21111902  0.63847342    -0.90800
O140        O  0.64364108  0.28318268  0.61634884    -0.76700
O141        O  0.64415770  0.20827208  0.64582329    -0.86200
O142        O  0.61041378  0.21047780  0.61008166    -0.85900
O143        O  0.61692125  0.14039849  0.66774210    -0.72700
O144        O  0.58691823  0.14328257  0.63409006    -0.84800
Zr145      Zr  0.64971114  0.08231223  0.60596193     2.26400
Zr146      Zr  0.65755633  0.14230838  0.66226912     2.06300
Zr147      Zr  0.59480033  0.14654560  0.59376260     2.10000
Zr148      Zr  0.65082635  0.21066658  0.60521140     1.78800
O149        O  0.56204252  0.10467089  0.58067504    -0.93600
O150        O  0.68838529  0.23819210  0.61626895    -0.41400
O151        O  0.63535805  0.14708468  0.58839537    -0.78000
O152        O  0.66575626  0.14713713  0.62184326    -0.96700
O153        O  0.64186585  0.07809541  0.64626021    -0.90000
O154        O  0.60890024  0.08090051  0.60988004    -0.92900
C155        C  0.62910169  0.30129638  0.62951418     1.00900
C156        C  0.55129987  0.20077912  0.62082931     1.13800
C157        C  0.63170730  0.20282945  0.70435230     1.04600
O158        O  0.69042421  0.18451231  0.67479626    -0.95000
O159        O  0.69341124  0.10742134  0.65421091    -0.90800
O160        O  0.69021923  0.07801837  0.61856388    -0.83900
C161        C  0.70196525  0.08911071  0.63649354     1.11200
O162        O  0.57006524  0.08752540  0.67766588    -0.97000
Zr163      Zr  0.60111111  0.07799097  0.65009387     1.88900
O164        O  0.63971947  0.00758767  0.61501417    -0.73600
O165        O  0.66228708  0.09007171  0.69320627    -0.52900
O166        O  0.60884615  0.04148986  0.68651481    -0.97600
O167        O  0.56532327  0.04776537  0.63551722    -0.54800
O168        O  0.61125325  0.00523366  0.64156079    -0.74200
C169        C  0.62566759  0.98721083  0.62818513     0.98200
O170        O  0.67426852  0.04270944  0.57950469    -0.63000
O171        O  0.58977715  0.19962633  0.56319571    -0.57800
O172        O  0.64030185  0.07901071  0.56470887    -0.94500
O173        O  0.60483678  0.10748557  0.55941128    -0.92900
O174        O  0.63998646  0.24768565  0.56978616    -0.93300
O175        O  0.67891882  0.20313576  0.57449202    -0.92000
C176        C  0.62269345  0.08793707  0.55210288     1.17000
H177        H  0.60337971  0.23562376  0.60336699     0.33000
H178        H  0.68186610  0.15098531  0.61894116     0.43800
H179        H  0.60239391  0.05667789  0.60183210     0.37300
H180        H  0.61296096  0.13785860  0.68382022     0.33800
H181        H  0.68970233  0.26607433  0.60819881     0.25600
H182        H  0.67458241  0.10210421  0.70307178     0.31500
H183        H  0.62466831  0.03036063  0.68504691     0.37500
H184        H  0.63574862  0.22458014  0.55892070     0.31900
H185        H  0.59763824  0.18762638  0.54956836     0.30800
H186        H  0.55728801  0.11830319  0.56596863     0.32500
H187        H  0.56985648  0.02707226  0.62346925     0.31400
H188        H  0.68403713  0.17294899  0.57552665     0.35400
H189        H  0.68690751  0.06245476  0.57534535     0.28200
H190        H  0.58279387  0.26782743  0.68100616     0.32400
H191        H  0.56429209  0.05834944  0.68103765     0.35300
H192        H  0.57327322  0.19833202  0.55918693     0.27900
H193        H  0.68156425  0.01976328  0.58880166     0.40700
H194        H  0.68508997  0.21460369  0.67430639     0.30800
H195        H  0.68683785  0.24578823  0.63275255     0.38400
H196        H  0.55793537  0.07152808  0.62692693     0.30300
H197        H  0.64821132  0.09273313  0.70258897     0.30300
H198        H  0.57091866  0.22367935  0.68641990     0.30600
Zr199      Zr  0.60150548  0.70556972  0.64873542     2.17500
O200        O  0.57219937  0.74137060  0.67162202    -0.51800
O201        O  0.61006224  0.78076249  0.63962767    -0.75000
O202        O  0.61277448  0.71521608  0.68949228    -0.81800
O203        O  0.55609193  0.67162174  0.60351861    -0.83500
O204        O  0.64845285  0.68763895  0.69397257    -0.79100
O205        O  0.56120821  0.70651645  0.63748078    -0.90800
O206        O  0.63501132  0.78384703  0.60980754    -0.76700
O207        O  0.64143283  0.71296289  0.64173003    -0.86200
O208        O  0.60613431  0.70626393  0.60773866    -0.85900
O209        O  0.61787814  0.64243955  0.66622500    -0.72700
O210        O  0.58643228  0.63900615  0.63439207    -0.84800
Zr211      Zr  0.65007445  0.58308271  0.60478097     2.26400
Zr212      Zr  0.65804550  0.65046779  0.65887315     2.06300
Zr213      Zr  0.59238610  0.63890941  0.59363833     2.10000
Zr214      Zr  0.64615437  0.71175122  0.60085656     1.78800
O215        O  0.56178762  0.58764354  0.58614329    -0.93600
O216        O  0.68193912  0.74782402  0.61062583    -0.41400
O217        O  0.63259066  0.64456071  0.58666687    -0.78000
O218        O  0.66447601  0.65127680  0.61802713    -0.96700
O219        O  0.64420169  0.58250394  0.64544833    -0.90000
O220        O  0.60965417  0.57663682  0.61036233    -0.92900
C221        C  0.62221550  0.80156025  0.62485622     1.00900
C222        C  0.54866326  0.69361288  0.62059487     1.13800
C223        C  0.63065566  0.70665924  0.70181444     1.04600
O224        O  0.68824482  0.70388415  0.66293295    -0.95000
O225        O  0.69381145  0.61501421  0.65162819    -0.90800
O226        O  0.69065529  0.58205319  0.61691137    -0.83900
C227        C  0.70230179  0.59478205  0.63454191     1.11200
O228        O  0.57629107  0.57820026  0.68246739    -0.97000
Zr229      Zr  0.60376222  0.57679202  0.65088422     1.88900
O230        O  0.64277263  0.50784079  0.61559392    -0.73600
O231        O  0.66995031  0.61251080  0.69370015    -0.52900
O232        O  0.61840617  0.54205395  0.68566267    -0.97600
O233        O  0.56625883  0.54771400  0.64064436    -0.54800
O234        O  0.61249000  0.50472522  0.63993622    -0.74200
C235        C  0.62787454  0.48702635  0.62759960     0.98200
O236        O  0.67525504  0.54619959  0.57777159    -0.63000
O237        O  0.58241194  0.68430596  0.56084807    -0.57800
O238        O  0.63974976  0.57575299  0.56391044    -0.94500
O239        O  0.60357354  0.60117131  0.55895809    -0.92900
O240        O  0.63310310  0.73995656  0.56381906    -0.93300
O241        O  0.67471252  0.70889352  0.57035475    -0.92000
C242        C  0.62179365  0.58288753  0.55146718     1.17000
H243        H  0.59775210  0.72971449  0.60080133     0.33000
H244        H  0.68045970  0.65565260  0.61447768     0.43800
H245        H  0.60363149  0.55117441  0.60310116     0.37300
H246        H  0.61468762  0.63993909  0.68248018     0.33800
H247        H  0.68231701  0.77346084  0.60053393     0.25600
H248        H  0.67284522  0.58269885  0.68874179     0.31500
H249        H  0.63189224  0.52533637  0.68058170     0.37500
H250        H  0.61988663  0.75861706  0.56744441     0.31900
H251        H  0.59654936  0.68582040  0.55147398     0.30800
H252        H  0.55272500  0.60058498  0.57343852     0.32500
H253        H  0.56895188  0.52989396  0.62683193     0.31400
H254        H  0.67239732  0.68056685  0.56307850     0.35400
H255        H  0.68717677  0.56729734  0.57339611     0.28200
H256        H  0.57985090  0.76633805  0.67880211     0.32400
H257        H  0.57307634  0.54778838  0.68615522     0.35300
H258        H  0.57167178  0.66688333  0.55151397     0.27900
H259        H  0.68343000  0.52404106  0.58688126     0.40700
H260        H  0.68059864  0.72935298  0.66951709     0.30800
H261        H  0.67943597  0.75947432  0.62627187     0.38400
H262        H  0.55733007  0.57250207  0.63483711     0.30300
H263        H  0.68530786  0.62417571  0.69747509     0.30300
H264        H  0.56871905  0.72165230  0.68456023     0.30600
Zr265      Zr  0.40432541  0.20645271  0.85535383     2.17500
O266        O  0.43362899  0.23828711  0.83067187    -0.51800
O267        O  0.39451640  0.28135613  0.86374531    -0.75000
O268        O  0.39205719  0.21621848  0.81477854    -0.81800
O269        O  0.44958876  0.17697406  0.90085217    -0.83500
O270        O  0.35759436  0.18396002  0.80981942    -0.79100
O271        O  0.44437592  0.21248480  0.86696521    -0.90800
O272        O  0.36721459  0.28300753  0.89136108    -0.76700
O273        O  0.36425545  0.21071325  0.86204091    -0.86200
O274        O  0.39936806  0.20855030  0.89634493    -0.85900
O275        O  0.38940962  0.14177586  0.83847953    -0.72700
O276        O  0.42047260  0.14140503  0.87093172    -0.84800
Zr277      Zr  0.35758002  0.08280707  0.90059805     2.26400
Zr278      Zr  0.34910036  0.14680768  0.84533527     2.06300
Zr279      Zr  0.41409131  0.14271212  0.91162908     2.10000
Zr280      Zr  0.35927009  0.21107682  0.90289602     1.78800
O281        O  0.44700733  0.09827256  0.92170769    -0.93600
O282        O  0.32240489  0.24485076  0.89488499    -0.41400
O283        O  0.37378740  0.14558623  0.91838144    -0.78000
O284        O  0.34233989  0.14950312  0.88607458    -0.96700
O285        O  0.36397263  0.08049079  0.86004563    -0.90000
O286        O  0.39813610  0.07903942  0.89542552    -0.92900
C287        C  0.38057560  0.30144501  0.87709189     1.00900
C288        C  0.45690592  0.19953176  0.88388984     1.13800
C289        C  0.37461573  0.20569981  0.80225783     1.04600
O290        O  0.31906474  0.19909613  0.83738728    -0.95000
O291        O  0.31333678  0.11233082  0.85361627    -0.90800
O292        O  0.31679409  0.08070875  0.88882378    -0.83900
C293        C  0.30495914  0.09323209  0.87120862     1.11200
O294        O  0.43238228  0.08299946  0.82388858    -0.97000
Zr295      Zr  0.40453747  0.07762864  0.85502163     1.88900
O296        O  0.36683657  0.00756240  0.89194394    -0.73600
O297        O  0.33919014  0.09954302  0.81347731    -0.52900
O298        O  0.39242143  0.04027762  0.82022278    -0.97600
O299        O  0.44165717  0.04867778  0.86682875    -0.54800
O300        O  0.39617428  0.00547357  0.86653358    -0.74200
C301        C  0.38170844  0.98714677  0.87977488     0.98200
O302        O  0.33258962  0.04704626  0.92833941    -0.63000
O303        O  0.42124708  0.19111861  0.94374477    -0.57800
O304        O  0.36847471  0.07598375  0.94112971    -0.94500
O305        O  0.40454127  0.10202277  0.94599717    -0.92900
O306        O  0.37414360  0.24368395  0.93799737    -0.93300
O307        O  0.33173703  0.20480480  0.93421452    -0.92000
C308        C  0.38644983  0.08311665  0.95343605     1.17000
H309        H  0.40713779  0.23290046  0.90300799     0.33000
H310        H  0.32634315  0.15383696  0.88951689     0.43800
H311        H  0.40445358  0.05415047  0.90307163     0.37300
H312        H  0.39276303  0.13958765  0.82225508     0.33800
H313        H  0.32291080  0.27248542  0.90320657     0.25600
H314        H  0.32745562  0.11542845  0.80450454     0.31500
H315        H  0.37647250  0.03107660  0.82330481     0.37500
H316        H  0.36447516  0.26934791  0.94036486     0.31900
H317        H  0.40853368  0.18584526  0.95466775     0.30800
H318        H  0.44128676  0.06843583  0.92140182     0.32500
H319        H  0.43839295  0.02953237  0.88005944     0.31400
H320        H  0.32604442  0.17497670  0.93326007     0.35400
H321        H  0.32052434  0.06811349  0.93226686     0.28200
H322        H  0.42649220  0.26390716  0.82354712     0.32400
H323        H  0.43822983  0.05354677  0.82160303     0.35300
H324        H  0.43495595  0.17912878  0.95155354     0.27900
H325        H  0.32459295  0.02412789  0.91971468     0.40700
H326        H  0.30799566  0.19590104  0.85018550     0.30800
H327        H  0.32309799  0.25295449  0.87838039     0.38400
H328        H  0.44996082  0.07322558  0.87367885     0.30300
H329        H  0.35290417  0.09935596  0.80345736     0.30300
H330        H  0.43587988  0.21789419  0.81781995     0.30600
Zr331      Zr  0.40474672  0.70645661  0.85793466     2.17500
O332        O  0.43448452  0.74140723  0.83506248    -0.51800
O333        O  0.39591126  0.78061371  0.86849644    -0.75000
O334        O  0.39271954  0.72204657  0.81805496    -0.81800
O335        O  0.45059560  0.66712140  0.90174331    -0.83500
O336        O  0.35705517  0.69462300  0.81281024    -0.79100
O337        O  0.44471085  0.71050496  0.87058967    -0.90800
O338        O  0.37059005  0.78165211  0.89790689    -0.76700
O339        O  0.36469544  0.71246696  0.86479219    -0.86200
O340        O  0.40005645  0.70345256  0.89879252    -0.85900
O341        O  0.38823480  0.64544116  0.83857005    -0.72700
O342        O  0.41982580  0.63836190  0.87031113    -0.84800
Zr343      Zr  0.35606242  0.58127980  0.89940249     2.26400
Zr344      Zr  0.34800247  0.65154204  0.84621438     2.06300
Zr345      Zr  0.41401377  0.63483888  0.91112432     2.10000
Zr346      Zr  0.36003229  0.70877315  0.90556671     1.78800
O347        O  0.44317210  0.58007058  0.91710029    -0.93600
O348        O  0.32502640  0.74865273  0.89715984    -0.41400
O349        O  0.37388321  0.64084008  0.91868000    -0.78000
O350        O  0.34169949  0.65030712  0.88706583    -0.96700
O351        O  0.36163558  0.58286970  0.85862942    -0.90000
O352        O  0.39636008  0.57466857  0.89289501    -0.92900
C353        C  0.38343542  0.80049760  0.88328012     1.00900
C354        C  0.45744969  0.69375718  0.88635990     1.13800
C355        C  0.37463671  0.71540171  0.80574307     1.04600
O356        O  0.31691776  0.70165959  0.83854676    -0.95000
O357        O  0.31176495  0.61786077  0.85423711    -0.90800
O358        O  0.31507666  0.58321609  0.88861649    -0.83900
C359        C  0.30323877  0.59769939  0.87146179     1.11200
O360        O  0.43070103  0.58175851  0.82190281    -0.97000
Zr361      Zr  0.40192414  0.57818584  0.85226147     1.88900
O362        O  0.36395275  0.50723784  0.88772531    -0.73600
O363        O  0.33800494  0.60853264  0.81265815    -0.52900
O364        O  0.38769429  0.55283831  0.81514573    -0.97600
O365        O  0.43757956  0.54122765  0.86181302    -0.54800
O366        O  0.39037473  0.50580493  0.85926396    -0.74200
C367        C  0.37672014  0.48725595  0.87322492     0.98200
O368        O  0.33170613  0.53700781  0.92402637    -0.63000
O369        O  0.42643728  0.67841296  0.94362620    -0.57800
O370        O  0.36608188  0.57335660  0.94045109    -0.94500
O371        O  0.40256739  0.59679921  0.94591883    -0.92900
O372        O  0.37334006  0.73471276  0.94282034    -0.93300
O373        O  0.33028462  0.69941701  0.93452604    -0.92000
C374        C  0.38396649  0.57931552  0.95318277     1.17000
H375        H  0.40836424  0.72630018  0.90629051     0.33000
H376        H  0.32586208  0.65539945  0.89086185     0.43800
H377        H  0.40229469  0.54836912  0.89941387     0.37300
H378        H  0.39138748  0.64514328  0.82225008     0.33800
H379        H  0.32500208  0.77258157  0.90832772     0.25600
H380        H  0.32619522  0.62556528  0.80441842     0.31500
H381        H  0.37278255  0.53909937  0.81857745     0.37500
H382        H  0.36548170  0.76254839  0.94486233     0.31900
H383        H  0.41246572  0.68248978  0.95301531     0.30800
H384        H  0.45064760  0.58789015  0.93185391     0.32500
H385        H  0.43345617  0.51989731  0.87376943     0.31400
H386        H  0.33310017  0.67053249  0.94104351     0.35400
H387        H  0.31976405  0.55638668  0.93016084     0.28200
H388        H  0.42771910  0.76879343  0.82969611     0.32400
H389        H  0.43294370  0.55183976  0.81673741     0.35300
H390        H  0.43627394  0.65920921  0.95300948     0.27900
H391        H  0.32344134  0.51721795  0.91357908     0.40700
H392        H  0.31113609  0.70956550  0.85398291     0.30800
H393        H  0.32782943  0.76258149  0.88206226     0.38400
H394        H  0.44691343  0.56278479  0.87009349     0.30300
H395        H  0.35164136  0.60999545  0.80257236     0.30300
H396        H  0.43626471  0.72387832  0.82097790     0.30600
Zr397      Zr  0.40318068  0.23955251  0.64987585     2.17500
O398        O  0.43217078  0.20361860  0.67350468    -0.51800
O399        O  0.39428329  0.16471406  0.64035914    -0.75000
O400        O  0.39227944  0.23040912  0.69078574    -0.81800
O401        O  0.44767248  0.26908930  0.60326043    -0.83500
O402        O  0.35719523  0.26020486  0.69603148    -0.79100
O403        O  0.44288482  0.23434779  0.63741099    -0.90800
O404        O  0.36818515  0.16276242  0.61133612    -0.76700
O405        O  0.36294680  0.23479836  0.64347723    -0.86200
O406        O  0.39779149  0.23888743  0.60897138    -0.85900
O407        O  0.38823284  0.30353612  0.66738639    -0.72700
O408        O  0.41913312  0.30533274  0.63502011    -0.84800
Zr409      Zr  0.35492340  0.36327255  0.60550029     2.26400
Zr410      Zr  0.34780621  0.29828727  0.66079837     2.06300
Zr411      Zr  0.41207916  0.30556376  0.59434958     2.10000
Zr412      Zr  0.35767826  0.23519828  0.60256637     1.78800
O413        O  0.44220324  0.35795376  0.58724484    -0.93600
O414        O  0.32238408  0.19568587  0.60989601    -0.41400
O415        O  0.37172248  0.30133599  0.58771108    -0.78000
O416        O  0.34044563  0.29577378  0.62004234    -0.96700
O417        O  0.36205908  0.36476823  0.64603515    -0.90000
O418        O  0.39557792  0.36861482  0.61076496    -0.92900
C419        C  0.38149341  0.14450747  0.62587406     1.00900
C420        C  0.45506684  0.24601361  0.62005710     1.13800
C421        C  0.37488367  0.23993281  0.70345121     1.04600
O422        O  0.31693490  0.25031634  0.67221528    -0.95000
O423        O  0.31129015  0.33040040  0.65227945    -0.90800
O424        O  0.31410350  0.36296592  0.61729706    -0.83900
C425        C  0.30249281  0.34972441  0.63487600     1.11200
O426        O  0.43184377  0.36560260  0.68138700    -0.97000
Zr427      Zr  0.40260661  0.36836696  0.65123770     1.88900
O428        O  0.36254214  0.43797563  0.61683924    -0.73600
O429        O  0.34030719  0.34953559  0.69142844    -0.52900
O430        O  0.39106335  0.40031749  0.68768437    -0.97600
O431        O  0.43832556  0.40193828  0.63890471    -0.54800
O432        O  0.39104335  0.44031809  0.64339304    -0.74200
C433        C  0.37604194  0.45841294  0.63059882     0.98200
O434        O  0.33057816  0.40611628  0.58000412    -0.63000
O435        O  0.42205022  0.26341416  0.56048606    -0.57800
O436        O  0.36419158  0.36698040  0.56389490    -0.94500
O437        O  0.40010153  0.34042369  0.55901439    -0.92900
O438        O  0.37155075  0.21142051  0.56514303    -0.93300
O439        O  0.32768478  0.24292414  0.57351088    -0.92000
C440        C  0.38183136  0.35844603  0.55129359     1.17000
H441        H  0.40568569  0.21503577  0.60201219     0.33000
H442        H  0.32449291  0.29059831  0.61666802     0.43800
H443        H  0.40149735  0.39403901  0.60335153     0.37300
H444        H  0.39189792  0.30585601  0.68356233     0.33800
H445        H  0.32331934  0.16994836  0.59999967     0.25600
H446        H  0.32708716  0.33737786  0.69988816     0.31500
H447        H  0.37558519  0.41223404  0.68476717     0.37500
H448        H  0.37828466  0.18277387  0.56795961     0.31900
H449        H  0.43528235  0.27855993  0.55356655     0.30800
H450        H  0.44582900  0.35496532  0.57065929     0.32500
H451        H  0.43438676  0.41870297  0.62492549     0.31400
H452        H  0.32594911  0.27425913  0.57144509     0.35400
H453        H  0.31813444  0.38674875  0.57484984     0.28200
H454        H  0.42442692  0.17874528  0.68072138     0.32400
H455        H  0.43660253  0.39568109  0.68394551     0.35300
H456        H  0.42853883  0.23628691  0.56650638     0.27900
H457        H  0.32296134  0.42737302  0.59003987     0.40700
H458        H  0.31026231  0.24019192  0.65748359     0.30800
H459        H  0.32411061  0.18453901  0.62581282     0.38400
H460        H  0.44789502  0.37803416  0.63322837     0.30300
H461        H  0.35340828  0.34641733  0.70221267     0.30300
H462        H  0.43568921  0.22337361  0.68636919     0.30600
Zr463      Zr  0.40073869  0.74068970  0.65385005     2.17500
O464        O  0.42906884  0.70464382  0.67818712    -0.51800
O465        O  0.38984441  0.66549930  0.64712669    -0.75000
O466        O  0.39004390  0.73808708  0.69496630    -0.81800
O467        O  0.44489271  0.75916677  0.60568574    -0.83500
O468        O  0.35649361  0.77367274  0.69999091    -0.79100
O469        O  0.44057183  0.73228628  0.64188725    -0.90800
O470        O  0.36199413  0.66254777  0.61992049    -0.76700
O471        O  0.36030550  0.73894213  0.64845392    -0.86200
O472        O  0.39445627  0.73488146  0.61323970    -0.85900
O473        O  0.38764065  0.80821008  0.66898663    -0.72700
O474        O  0.41803075  0.80268370  0.63612868    -0.84800
Zr475      Zr  0.35517213  0.86248640  0.60577715     2.26400
Zr476      Zr  0.34701257  0.80614059  0.66326168     2.06300
Zr477      Zr  0.41027142  0.79778736  0.59574883     2.10000
Zr478      Zr  0.35416970  0.73420699  0.60777715     1.78800
O479        O  0.44350204  0.84195141  0.58676245    -0.93600
O480        O  0.31698478  0.70511597  0.61879959    -0.41400
O481        O  0.36970834  0.79673118  0.58984026    -0.78000
O482        O  0.33904416  0.79863926  0.62280132    -0.96700
O483        O  0.36297253  0.86920124  0.64605228    -0.90000
O484        O  0.39593733  0.86407828  0.61019957    -0.92900
C485        C  0.37568908  0.64471273  0.63421471     1.00900
C486        C  0.45248654  0.73971311  0.62368462     1.13800
C487        C  0.37351346  0.75180136  0.70766406     1.04600
O488        O  0.31529562  0.76212155  0.67686020    -0.95000
O489        O  0.31106795  0.83960280  0.65366946    -0.90800
O490        O  0.31449011  0.86753363  0.61759891    -0.83900
C491        C  0.30261953  0.85705908  0.63550873     1.11200
O492        O  0.43451447  0.86066399  0.67861749    -0.97000
Zr493      Zr  0.40374384  0.86914144  0.65034768     1.88900
O494        O  0.36490948  0.93761891  0.61365153    -0.73600
O495        O  0.34090582  0.86260657  0.69144319    -0.52900
O496        O  0.39603255  0.90613858  0.68645181    -0.97600
O497        O  0.43922083  0.90040907  0.63578377    -0.54800
O498        O  0.39402921  0.94103914  0.63955591    -0.74200
C499        C  0.37948345  0.95856705  0.62597048     0.98200
O500        O  0.33097146  0.90037868  0.57797915    -0.63000
O501        O  0.41644324  0.74947626  0.56344093    -0.57800
O502        O  0.36546588  0.86516001  0.56471710    -0.94500
O503        O  0.40067147  0.83521636  0.56032918    -0.92900
O504        O  0.36607693  0.69549387  0.57347498    -0.93300
O505        O  0.32602179  0.73880570  0.57673543    -0.92000
C506        C  0.38309043  0.85536034  0.55246847     1.17000
H507        H  0.40150060  0.70931943  0.60720073     0.33000
H508        H  0.32296612  0.79448350  0.61965163     0.43800
H509        H  0.40244379  0.88781081  0.60171773     0.37300
H510        H  0.39172465  0.81242813  0.68493247     0.33800
H511        H  0.31558426  0.67798971  0.61010193     0.25600
H512        H  0.32951966  0.85054513  0.70230059     0.31500
H513        H  0.40403232  0.93400607  0.68505346     0.37500
H514        H  0.37259566  0.71774734  0.56321881     0.31900
H515        H  0.43067363  0.75999657  0.55608061     0.30800
H516        H  0.44670226  0.83632517  0.57029265     0.32500
H517        H  0.43481007  0.91756168  0.62207937     0.31400
H518        H  0.32746781  0.76843735  0.57077635     0.35400
H519        H  0.31852129  0.88020741  0.57384033     0.28200
H520        H  0.42064919  0.68214698  0.68675651     0.32400
H521        H  0.44142504  0.88942647  0.68045497     0.35300
H522        H  0.42083363  0.72170950  0.57046072     0.27900
H523        H  0.32339058  0.92365264  0.58665407     0.40700
H524        H  0.32082831  0.73225436  0.67554426     0.30800
H525        H  0.31896841  0.69596722  0.63504861     0.38400
H526        H  0.44791588  0.87589434  0.62949694     0.30300
H527        H  0.35536168  0.86375559  0.70042760     0.30300
H528        H  0.43370160  0.72590119  0.68995719     0.30600
Zr529      Zr  0.90031714  0.97649597  0.64936052     2.17500
O530        O  0.92848378  0.93584201  0.67167342    -0.51800
O531        O  0.89072031  0.90155632  0.64097674    -0.75000
O532        O  0.89058938  0.97075109  0.69055182    -0.81800
O533        O  0.94494887  0.00480387  0.60333725    -0.83500
O534        O  0.85614609  0.00260765  0.69608833    -0.79100
O535        O  0.94064622  0.97419723  0.63860125    -0.90800
O536        O  0.86342370  0.89828321  0.61328291    -0.76700
O537        O  0.85981516  0.97357266  0.64462015    -0.86200
O538        O  0.89361416  0.97219851  0.60871893    -0.85900
O539        O  0.88682772  0.04261054  0.66594103    -0.72700
O540        O  0.91658320  0.04007695  0.63246094    -0.84800
Zr541      Zr  0.85291596  0.09841304  0.60392721     2.26400
Zr542      Zr  0.84617579  0.03946307  0.66072359     2.06300
Zr543      Zr  0.90862817  0.03655388  0.59216636     2.10000
Zr544      Zr  0.85315610  0.97042332  0.60394948     1.78800
O545        O  0.94109611  0.07970695  0.57961441    -0.93600
O546        O  0.81769961  0.93633350  0.61647331    -0.41400
O547        O  0.86798436  0.03423183  0.58671170    -0.78000
O548        O  0.83757458  0.03342881  0.62034061    -0.96700
O549        O  0.86116698  0.10381733  0.64413923    -0.90000
O550        O  0.89370592  0.10155535  0.60775578    -0.92900
C551        C  0.87730714  0.88058202  0.62742152     1.00900
C552        C  0.95287431  0.98523061  0.62117746     1.13800
C553        C  0.87371247  0.98192918  0.70347008     1.04600
O554        O  0.81391016  0.99681713  0.67420040    -0.95000
O555        O  0.81018507  0.07429140  0.65247231    -0.90800
O556        O  0.81256849  0.10284686  0.61650930    -0.83900
C557        C  0.80117995  0.09203099  0.63465251     1.11200
O558        O  0.93319989  0.09745073  0.67560004    -0.97000
Zr559      Zr  0.90194254  0.10518863  0.64783461     1.88900
O560        O  0.86067794  0.17341883  0.61334732    -0.73600
O561        O  0.84188002  0.09269849  0.69101137    -0.52900
O562        O  0.89436888  0.14188854  0.68404430    -0.97600
O563        O  0.93732961  0.13688582  0.63330841    -0.54800
O564        O  0.89098630  0.17690976  0.63779101    -0.74200
C565        C  0.87536955  0.19442985  0.62543483     0.98200
O566        O  0.82773796  0.13235742  0.57555162    -0.63000
O567        O  0.91398638  0.98529120  0.56106861    -0.57800
O568        O  0.86359759  0.10677404  0.56334007    -0.94500
O569        O  0.89883653  0.07740939  0.55802409    -0.92900
O570        O  0.86284105  0.93601476  0.56763725    -0.93300
O571        O  0.82302051  0.97819191  0.57501316    -0.92000
C572        C  0.88125265  0.09836785  0.55089042     1.17000
H573        H  0.90092479  0.94737640  0.60211078     0.33000
H574        H  0.82141657  0.02936047  0.61761508     0.43800
H575        H  0.89977678  0.12600352  0.59954027     0.37300
H576        H  0.89103681  0.04588814  0.68193429     0.33800
H577        H  0.81638417  0.91026066  0.60688095     0.25600
H578        H  0.83037757  0.08022797  0.70160705     0.31500
H579        H  0.87934811  0.15607896  0.68175660     0.37500
H580        H  0.85270423  0.91060241  0.56681781     0.31900
H581        H  0.90037499  0.98908425  0.55100898     0.30800
H582        H  0.94808918  0.06328541  0.56686350     0.32500
H583        H  0.93286648  0.15342988  0.61941049     0.31400
H584        H  0.81976731  0.00930897  0.57448843     0.35400
H585        H  0.81563536  0.11104212  0.57208935     0.28200
H586        H  0.91985978  0.91242083  0.67926401     0.32400
H587        H  0.93882383  0.12685117  0.67858398     0.35300
H588        H  0.92687694  0.99697364  0.55193174     0.27900
H589        H  0.81983976  0.15588161  0.58372529     0.40700
H590        H  0.80690087  0.98511604  0.65997556     0.30800
H591        H  0.82108610  0.92539371  0.63216915     0.38400
H592        H  0.94623655  0.11237908  0.62729252     0.30300
H593        H  0.85646543  0.09149726  0.69978686     0.30300
H594        H  0.93342974  0.95493906  0.68435526     0.30600
Zr595      Zr  0.90080960  0.47400559  0.64925769     2.17500
O596        O  0.92835155  0.43043039  0.67076166    -0.51800
O597        O  0.88974347  0.40066215  0.63938717    -0.75000
O598        O  0.89033196  0.46436539  0.69008248    -0.81800
O599        O  0.94668176  0.50963354  0.60556419    -0.83500
O600        O  0.85481343  0.49250012  0.69495845    -0.79100
O601        O  0.94122899  0.47066622  0.63820781    -0.90800
O602        O  0.86323982  0.39942889  0.61084538    -0.76700
O603        O  0.86062857  0.46990267  0.64226561    -0.86200
O604        O  0.89578658  0.47566141  0.60831878    -0.85900
O605        O  0.88570957  0.53693213  0.66780846    -0.72700
O606        O  0.91714612  0.54051884  0.63609377    -0.84800
Zr607      Zr  0.85414379  0.60076651  0.60689010     2.26400
Zr608      Zr  0.84531401  0.53235998  0.66042609     2.06300
Zr609      Zr  0.91075345  0.54291984  0.59534300     2.10000
Zr610      Zr  0.85560366  0.47292534  0.60139509     1.78800
O611        O  0.94103396  0.59421745  0.58674592    -0.93600
O612        O  0.81797982  0.44201695  0.60888913    -0.41400
O613        O  0.87056297  0.53960670  0.58803460    -0.78000
O614        O  0.83846510  0.53307775  0.61955210    -0.96700
O615        O  0.86022999  0.59990934  0.64759110    -0.90000
O616        O  0.89463858  0.60493242  0.61299242    -0.92900
C617        C  0.87631793  0.38071501  0.62544553     1.00900
C618        C  0.95394519  0.48534469  0.62190036     1.13800
C619        C  0.87266287  0.47299335  0.70252376     1.04600
O620        O  0.81472635  0.48146027  0.66858207    -0.95000
O621        O  0.80947052  0.56757444  0.65239905    -0.90800
O622        O  0.81345757  0.60326097  0.61847269    -0.83900
C623        C  0.80132578  0.58919474  0.63544663     1.11200
O624        O  0.92943239  0.59796424  0.68417867    -0.97000
Zr625      Zr  0.90071783  0.60255420  0.65356289     1.88900
O626        O  0.86349030  0.67429635  0.61819641    -0.73600
O627        O  0.83508568  0.57717775  0.69312293    -0.52900
O628        O  0.88661174  0.62900221  0.69040056    -0.97600
O629        O  0.93759752  0.63507895  0.64429492    -0.54800
O630        O  0.89175616  0.67582119  0.64500247    -0.74200
C631        C  0.87752598  0.69437577  0.63150990     0.98200
O632        O  0.83061555  0.64437519  0.58103567    -0.63000
O633        O  0.92149025  0.49717768  0.56319762    -0.57800
O634        O  0.86385751  0.60817480  0.56581705    -0.94500
O635        O  0.89956719  0.58097653  0.56059904    -0.92900
O636        O  0.86781443  0.44040662  0.56531321    -0.93300
O637        O  0.83015232  0.48456548  0.56857031    -0.92000
C638        C  0.88153156  0.60031590  0.55323272     1.17000
H639        H  0.90370732  0.45205695  0.60115584     0.33000
H640        H  0.82245581  0.52946460  0.61584247     0.43800
H641        H  0.90101691  0.63049514  0.60610834     0.37300
H642        H  0.88917392  0.53878559  0.68403135     0.33800
H643        H  0.81667013  0.41789293  0.59791797     0.25600
H644        H  0.82407365  0.55973379  0.70211320     0.31500
H645        H  0.87498294  0.65089343  0.68635996     0.37500
H646        H  0.88101197  0.42192764  0.56940807     0.31900
H647        H  0.90707741  0.49285009  0.55443664     0.30800
H648        H  0.94729006  0.58490669  0.57172016     0.32500
H649        H  0.93445965  0.65462952  0.63118449     0.31400
H650        H  0.82360705  0.51343362  0.57107127     0.35400
H651        H  0.81818427  0.62532126  0.57553248     0.28200
H652        H  0.91943106  0.40651923  0.67751112     0.32400
H653        H  0.93184231  0.62776767  0.68947802     0.35300
H654        H  0.93098846  0.51558977  0.55309229     0.27900
H655        H  0.82294013  0.66579622  0.59092005     0.40700
H656        H  0.80542000  0.48060634  0.65427763     0.30800
H657        H  0.81952054  0.42807750  0.62417687     0.38400
H658        H  0.94672792  0.61156317  0.63752334     0.30300
H659        H  0.84906390  0.57809962  0.70284516     0.30300
H660        H  0.93316096  0.44804609  0.68410507     0.30600
Zr661      Zr  0.90444082  0.45228804  0.85479181     2.17500
O662        O  0.93261560  0.49261614  0.83249352    -0.51800
O663        O  0.89477803  0.52700575  0.86348307    -0.75000
O664        O  0.89316880  0.46008346  0.81395737    -0.81800
O665        O  0.94973198  0.42390227  0.90094246    -0.83500
O666        O  0.85769091  0.43123615  0.80989905    -0.79100
O667        O  0.94499426  0.45233253  0.86503763    -0.90800
O668        O  0.86607656  0.52930053  0.88958672    -0.76700
O669        O  0.86431651  0.45648641  0.86157986    -0.86200
O670        O  0.89984670  0.45363210  0.89577954    -0.85900
O671        O  0.88929686  0.38817091  0.83747670    -0.72700
O672        O  0.92080062  0.38716040  0.86988835    -0.84800
Zr673      Zr  0.85788608  0.32817719  0.89962856     2.26400
Zr674      Zr  0.84907883  0.39241000  0.84485479     2.06300
Zr675      Zr  0.91456335  0.38719196  0.91055211     2.10000
Zr676      Zr  0.85981243  0.45707836  0.90247016     1.78800
O677        O  0.94514666  0.33509727  0.91628160    -0.93600
O678        O  0.82188030  0.48802665  0.89646017    -0.41400
O679        O  0.87428704  0.39093185  0.91741347    -0.78000
O680        O  0.84260116  0.39547365  0.88567243    -0.96700
O681        O  0.86414749  0.32620996  0.85906253    -0.90000
O682        O  0.89844337  0.32404197  0.89399697    -0.92900
C683        C  0.88016455  0.54743552  0.87587348     1.00900
C684        C  0.95721868  0.44284958  0.88281397     1.13800
C685        C  0.87531476  0.45062248  0.80182448     1.04600
O686        O  0.81690487  0.43636146  0.83221190    -0.95000
O687        O  0.81296398  0.35981896  0.85413730    -0.90800
O688        O  0.81677166  0.32686832  0.88888795    -0.83900
C689        C  0.80465190  0.34014257  0.87161776     1.11200
O690        O  0.93306673  0.33348403  0.82306217    -0.97000
Zr691      Zr  0.90467523  0.32410503  0.85344157     1.88900
O692        O  0.86661862  0.25351878  0.88887868    -0.73600
O693        O  0.84260637  0.33955003  0.81476323    -0.52900
O694        O  0.89211850  0.29028720  0.81772932    -0.97600
O695        O  0.94147448  0.29148191  0.86314266    -0.54800
O696        O  0.89579883  0.25173414  0.86324723    -0.74200
C697        C  0.88109360  0.23333149  0.87612357     0.98200
O698        O  0.83484272  0.28449674  0.92574767    -0.63000
O699        O  0.92643153  0.43037503  0.94344486    -0.57800
O700        O  0.86765323  0.32363053  0.94071844    -0.94500
O701        O  0.90355936  0.35022167  0.94569339    -0.92900
O702        O  0.87636044  0.49184834  0.93627203    -0.93300
O703        O  0.83458972  0.45115302  0.93571517    -0.92000
C704        C  0.88538211  0.33172882  0.95325452     1.17000
H705        H  0.90781193  0.47774372  0.90247758     0.33000
H706        H  0.82669344  0.39995177  0.88933444     0.43800
H707        H  0.90476506  0.29886266  0.90135700     0.37300
H708        H  0.89259031  0.38545183  0.82127737     0.33800
H709        H  0.82198979  0.51499373  0.90540289     0.25600
H710        H  0.82939849  0.35085435  0.80585975     0.31500
H711        H  0.87867093  0.27266042  0.82203117     0.37500
H712        H  0.87539862  0.52298306  0.93312633     0.31900
H713        H  0.91250209  0.43329783  0.95302259     0.30800
H714        H  0.95415896  0.34631051  0.92944453     0.32500
H715        H  0.93880798  0.27563524  0.87770097     0.31400
H716        H  0.82530709  0.42517100  0.93274770     0.35400
H717        H  0.82255628  0.30357672  0.93145164     0.28200
H718        H  0.92408334  0.51672111  0.82537820     0.32400
H719        H  0.93706274  0.30420969  0.81793470     0.35300
H720        H  0.93673141  0.41156113  0.95256121     0.27900
H721        H  0.82690134  0.26325715  0.91590014     0.40700
H722        H  0.81792387  0.46252702  0.84174456     0.30800
H723        H  0.82179767  0.49746500  0.88014703     0.38400
H724        H  0.95142896  0.31578993  0.86762522     0.30300
H725        H  0.85583222  0.34277247  0.80424406     0.30300
H726        H  0.93688986  0.47387174  0.81945280     0.30600
Zr727      Zr  0.90530566  0.95220232  0.85488000     2.17500
O728        O  0.93491913  0.98497220  0.83097343    -0.51800
O729        O  0.89497815  0.02698477  0.86265360    -0.75000
O730        O  0.89355342  0.96105369  0.81436486    -0.81800
O731        O  0.95106292  0.92123678  0.90042675    -0.83500
O732        O  0.85829906  0.93118950  0.80987427    -0.79100
O733        O  0.94535847  0.95749678  0.86678963    -0.90800
O734        O  0.86827324  0.02922679  0.89091104    -0.76700
O735        O  0.86520000  0.95637638  0.86146082    -0.86200
O736        O  0.90025024  0.95442141  0.89573834    -0.85900
O737        O  0.89019914  0.88774313  0.83782929    -0.72700
O738        O  0.92172302  0.88778453  0.87054843    -0.84800
Zr739      Zr  0.85887085  0.82823571  0.90000900     2.26400
Zr740      Zr  0.84985208  0.89237954  0.84495974     2.06300
Zr741      Zr  0.91503903  0.88876888  0.91113469     2.10000
Zr742      Zr  0.86018743  0.95701208  0.90225659     1.78800
O743        O  0.94621322  0.84096487  0.92221545    -0.93600
O744        O  0.82325243  0.98905373  0.89262220    -0.41400
O745        O  0.87468523  0.89134716  0.91784444    -0.78000
O746        O  0.84342182  0.89491206  0.88568709    -0.96700
O747        O  0.86549561  0.82666524  0.85942091    -0.90000
O748        O  0.89947143  0.82479611  0.89473353    -0.92900
C749        C  0.88126694  0.04729800  0.87612894     1.00900
C750        C  0.95809223  0.94424265  0.88350227     1.13800
C751        C  0.87571665  0.95175492  0.80221450     1.04600
O752        O  0.81897221  0.94349631  0.83827297    -0.95000
O753        O  0.81437747  0.85621544  0.85359897    -0.90800
O754        O  0.81791141  0.82543265  0.88899538    -0.83900
C755        C  0.80596011  0.83740266  0.87132931     1.11200
O756        O  0.93576184  0.83499543  0.82518631    -0.97000
Zr757      Zr  0.90614121  0.82439246  0.85426263     1.88900
O758        O  0.86788639  0.75374175  0.88961798    -0.73600
O759        O  0.83961216  0.84619365  0.81274180    -0.52900
O760        O  0.89740415  0.78854550  0.81800810    -0.97600
O761        O  0.94274432  0.79473279  0.86713918    -0.54800
O762        O  0.89629078  0.75189426  0.86307218    -0.74200
C763        C  0.88184936  0.73356010  0.87631443     0.98200
O764        O  0.83030594  0.79055005  0.92309225    -0.63000
O765        O  0.92223983  0.93911680  0.94240501    -0.57800
O766        O  0.87000029  0.82084549  0.94091522    -0.94500
O767        O  0.90492022  0.85137679  0.94616595    -0.92900
O768        O  0.87476579  0.99219243  0.93675648    -0.93300
O769        O  0.83341041  0.95178042  0.93428038    -0.92000
C770        C  0.88744538  0.83057656  0.95357124     1.17000
H771        H  0.90795685  0.97893776  0.90227224     0.33000
H772        H  0.82742641  0.89883330  0.88921597     0.43800
H773        H  0.90585446  0.79986794  0.90228163     0.37300
H774        H  0.89344578  0.88532800  0.82158856     0.33800
H775        H  0.82152556  0.01317683  0.90351492     0.25600
H776        H  0.82784394  0.86247448  0.80402054     0.31500
H777        H  0.88104086  0.78043402  0.81922613     0.37500
H778        H  0.87767855  0.96861963  0.94784922     0.31900
H779        H  0.93193313  0.92313094  0.95352558     0.30800
H780        H  0.95274230  0.85379030  0.93638991     0.32500
H781        H  0.93907731  0.77628381  0.88053678     0.31400
H782        H  0.83111258  0.92062445  0.93653260     0.35400
H783        H  0.83849271  0.76636639  0.93052323     0.28200
H784        H  0.92776278  0.01063300  0.82392549     0.32400
H785        H  0.94181741  0.80608419  0.82176968     0.35300
H786        H  0.93258731  0.96116347  0.93589419     0.27900
H787        H  0.82630630  0.81021312  0.93583294     0.40700
H788        H  0.80919633  0.94153860  0.85216433     0.30800
H789        H  0.82561614  0.00301664  0.87745256     0.38400
H790        H  0.95118014  0.81931803  0.87380189     0.30300
H791        H  0.85325096  0.84628821  0.80262016     0.30300
H792        H  0.93742892  0.96493062  0.81800883     0.30600
Zr793      Zr  0.10635382  0.98346254  0.85473011     2.17500
O794        O  0.07796779  0.94374156  0.83226857    -0.51800
O795        O  0.11660844  0.90913252  0.86379131    -0.75000
O796        O  0.11695883  0.97489188  0.81418254    -0.81800
O797        O  0.06148895  0.01087540  0.90052683    -0.83500
O798        O  0.15185490  0.00564684  0.80901553    -0.79100
O799        O  0.06634287  0.97820795  0.86596457    -0.90800
O800        O  0.14351217  0.90705192  0.89202704    -0.76700
O801        O  0.14654780  0.97922151  0.86127503    -0.86200
O802        O  0.11159252  0.98294230  0.89558144    -0.85900
O803        O  0.12131632  0.04747400  0.83691500    -0.72700
O804        O  0.08976238  0.04915119  0.86850943    -0.84800
Zr805      Zr  0.15298574  0.10817427  0.89845436     2.26400
Zr806      Zr  0.16172584  0.04289722  0.84408658     2.06300
Zr807      Zr  0.09633529  0.04939202  0.90918119     2.10000
Zr808      Zr  0.15178368  0.97984174  0.90206957     1.78800
O809        O  0.06569859  0.10158247  0.91376879    -0.93600
O810        O  0.18820934  0.94566125  0.89291955    -0.41400
O811        O  0.13664742  0.04562183  0.91655663    -0.78000
O812        O  0.16852451  0.04122965  0.88487332    -0.96700
O813        O  0.14676958  0.10952695  0.85778702    -0.90000
O814        O  0.11249175  0.11251852  0.89244130    -0.92900
C815        C  0.13021169  0.88889052  0.87753171     1.00900
C816        C  0.05416489  0.98871602  0.88345874     1.13800
C817        C  0.13428263  0.98510643  0.80165958     1.04600
O818        O  0.19250522  0.99271892  0.83558377    -0.95000
O819        O  0.19759174  0.07677210  0.85326915    -0.90800
O820        O  0.19396585  0.11027580  0.88772952    -0.83900
C821        C  0.20599177  0.09689194  0.87056555     1.11200
O822        O  0.07786572  0.10737656  0.82102559    -0.97000
Zr823      Zr  0.10628700  0.11225673  0.85188365     1.88900
O824        O  0.14473638  0.18245028  0.88708357    -0.73600
O825        O  0.17252869  0.08993661  0.81234302    -0.52900
O826        O  0.11945604  0.14125619  0.81515806    -0.97600
O827        O  0.06999261  0.14623481  0.86178857    -0.54800
O828        O  0.11646749  0.18491409  0.86027865    -0.74200
C829        C  0.13107625  0.20300138  0.87351812     0.98200
O830        O  0.17623957  0.15085137  0.92488865    -0.63000
O831        O  0.08386198  0.00686334  0.94216635    -0.57800
O832        O  0.14253215  0.11369095  0.93929115    -0.94500
O833        O  0.10662092  0.08702793  0.94405126    -0.92900
O834        O  0.13927781  0.94736965  0.93812642    -0.93300
O835        O  0.18091080  0.98920778  0.93184356    -0.92000
C836        C  0.12468644  0.10576798  0.95162192     1.17000
H837        H  0.10383075  0.95892348  0.90262575     0.33000
H838        H  0.18447758  0.03696624  0.88863920     0.43800
H839        H  0.10624499  0.13785066  0.89960430     0.37300
H840        H  0.11773289  0.04994704  0.82073499     0.33800
H841        H  0.18860873  0.91934949  0.90249455     0.25600
H842        H  0.18268340  0.07228799  0.80255683     0.31500
H843        H  0.13287954  0.15928897  0.81905347     0.37500
H844        H  0.14775535  0.91993389  0.93908387     0.31900
H845        H  0.09729881  0.00560852  0.95263184     0.30800
H846        H  0.05886262  0.09478421  0.92894812     0.32500
H847        H  0.07290870  0.16130984  0.87650004     0.31400
H848        H  0.17701247  0.01678377  0.93924581     0.35400
H849        H  0.18850413  0.13150158  0.93052802     0.28200
H850        H  0.08621909  0.91884526  0.82577501     0.32400
H851        H  0.07410869  0.13732646  0.81677487     0.35300
H852        H  0.07261121  0.02513429  0.95027067     0.27900
H853        H  0.18418362  0.17238400  0.91520956     0.40700
H854        H  0.18503033  0.96427215  0.83489996     0.30800
H855        H  0.18636625  0.93515885  0.87692668     0.38400
H856        H  0.05970310  0.12223221  0.86597793     0.30300
H857        H  0.15833369  0.09341615  0.80311740     0.30300
H858        H  0.07411054  0.96205631  0.81882372     0.30600
Zr859      Zr  0.10534565  0.48525230  0.85330702     2.17500
O860        O  0.07727330  0.44694170  0.82977501    -0.51800
O861        O  0.11578797  0.41037605  0.86078518    -0.75000
O862        O  0.11615636  0.48002575  0.81251014    -0.81800
O863        O  0.06067961  0.51063831  0.89969406    -0.83500
O864        O  0.15140960  0.50968714  0.80806640    -0.79100
O865        O  0.06524110  0.47928450  0.86480947    -0.90800
O866        O  0.14398563  0.40704396  0.88759959    -0.76700
O867        O  0.14573072  0.48225852  0.85908050    -0.86200
O868        O  0.11139868  0.48052235  0.89399960    -0.85900
O869        O  0.11931002  0.55136204  0.83691400    -0.72700
O870        O  0.08860523  0.54870364  0.86961870    -0.84800
Zr871      Zr  0.15179876  0.60730397  0.89961394     2.26400
Zr872      Zr  0.15982160  0.54810803  0.84321366     2.06300
Zr873      Zr  0.09615479  0.54493723  0.91004624     2.10000
Zr874      Zr  0.15167120  0.47887290  0.89982135     1.78800
O875        O  0.06408482  0.59104688  0.92017225    -0.93600
O876        O  0.18884367  0.44781670  0.89055185    -0.41400
O877        O  0.13661324  0.54276350  0.91651329    -0.78000
O878        O  0.16757490  0.54222412  0.88379387    -0.96700
O879        O  0.14449038  0.61259916  0.85916206    -0.90000
O880        O  0.11112990  0.61017955  0.89469873    -0.92900
C881        C  0.13008280  0.38942626  0.87345338     1.00900
C882        C  0.05306259  0.48952533  0.88240389     1.13800
C883        C  0.13380651  0.48975838  0.80030678     1.04600
O884        O  0.19272205  0.50553335  0.83146098    -0.95000
O885        O  0.19520812  0.58404106  0.85229084    -0.90800
O886        O  0.19257306  0.61094866  0.88846236    -0.83900
C887        C  0.20409819  0.60092020  0.87031356     1.11200
O888        O  0.07434591  0.60756385  0.82464530    -0.97000
Zr889      Zr  0.10381165  0.61385622  0.85440369     1.88900
O890        O  0.14319871  0.68237558  0.89050440    -0.73600
O891        O  0.16510449  0.59882300  0.81165681    -0.52900
O892        O  0.11368922  0.65068871  0.81867857    -0.97600
O893        O  0.06768854  0.64511690  0.86717746    -0.54800
O894        O  0.11359269  0.68556530  0.86517704    -0.74200
C895        C  0.12852763  0.70319630  0.87820251     0.98200
O896        O  0.17521245  0.64713951  0.92717376    -0.63000
O897        O  0.08836921  0.49406947  0.94099855    -0.57800
O898        O  0.14125878  0.61130652  0.94043554    -0.94500
O899        O  0.10583884  0.58231769  0.94505780    -0.92900
O900        O  0.13853987  0.44467935  0.93520825    -0.93300
O901        O  0.17962712  0.48309155  0.93105302    -0.92000
C902        C  0.12347692  0.60237154  0.95264471     1.17000
H903        H  0.10399245  0.45554845  0.90044680     0.33000
H904        H  0.18366211  0.53800182  0.88688976     0.43800
H905        H  0.10474583  0.63441324  0.90275975     0.37300
H906        H  0.11563536  0.55465903  0.82078969     0.33800
H907        H  0.18945880  0.42060347  0.89935912     0.25600
H908        H  0.17724095  0.58593295  0.80200204     0.31500
H909        H  0.12861309  0.66464021  0.82184941     0.37500
H910        H  0.14356420  0.41449319  0.93396356     0.31900
H911        H  0.10221037  0.49491813  0.95092246     0.30800
H912        H  0.05674947  0.57668361  0.93349034     0.32500
H913        H  0.07137706  0.66066348  0.88157393     0.31400
H914        H  0.18731646  0.51107020  0.92882341     0.35400
H915        H  0.18801684  0.62786203  0.93150883     0.28200
H916        H  0.08575148  0.42324475  0.82235218     0.32400
H917        H  0.06855014  0.63700328  0.82204180     0.35300
H918        H  0.07626579  0.50784448  0.95032940     0.27900
H919        H  0.18239920  0.67062102  0.91823171     0.40700
H920        H  0.20112994  0.49926363  0.84595007     0.30800
H921        H  0.18742624  0.43882749  0.87425012     0.38400
H922        H  0.05833943  0.62038185  0.87225883     0.30300
H923        H  0.15098405  0.59644907  0.80220769     0.30300
H924        H  0.07307439  0.46666009  0.81702690     0.30600
Zr925      Zr  0.10428275  0.45975076  0.64856531     2.17500
O926        O  0.07694201  0.50153502  0.67098576    -0.51800
O927        O  0.11357959  0.53447021  0.63979381    -0.75000
O928        O  0.11541828  0.46643286  0.68938982    -0.81800
O929        O  0.05928678  0.43234151  0.60213372    -0.83500
O930        O  0.14997714  0.43456469  0.69463397    -0.79100
O931        O  0.06354883  0.45968248  0.63819260    -0.90800
O932        O  0.14217489  0.53770229  0.61356614    -0.76700
O933        O  0.14472380  0.46264809  0.64316231    -0.86200
O934        O  0.11040931  0.46402658  0.60786687    -0.85900
O935        O  0.11830765  0.39415981  0.66555089    -0.72700
O936        O  0.08777773  0.39621200  0.63221246    -0.84800
Zr937      Zr  0.15082597  0.33675249  0.60342342     2.26400
Zr938      Zr  0.15886185  0.39710664  0.65945741     2.06300
Zr939      Zr  0.09528724  0.39939504  0.59182532     2.10000
Zr940      Zr  0.15073232  0.46549774  0.60247299     1.78800
O941        O  0.06254601  0.35658436  0.57954879    -0.93600
O942        O  0.18767799  0.49766230  0.61191006    -0.41400
O943        O  0.13582521  0.40112918  0.58595049    -0.78000
O944        O  0.16660288  0.40224290  0.61889679    -0.96700
O945        O  0.14335896  0.33250884  0.64374862    -0.90000
O946        O  0.11012167  0.33431091  0.60785778    -0.92900
C947        C  0.12780714  0.55531920  0.62713754     1.00900
C948        C  0.05142777  0.45034135  0.62030339     1.13800
C949        C  0.13271517  0.45578021  0.70204300     1.04600
O950        O  0.19074588  0.44179070  0.67202803    -0.95000
O951        O  0.19465665  0.36230669  0.65100288    -0.90800
O952        O  0.19155488  0.33261617  0.61543229    -0.83900
C953        C  0.20330243  0.34401987  0.63331280     1.11200
O954        O  0.07240613  0.33770160  0.67681626    -0.97000
Zr955      Zr  0.10268802  0.33154759  0.64813401     1.88900
O956        O  0.14204646  0.26204397  0.61375178    -0.73600
O957        O  0.16531087  0.34490883  0.69010328    -0.52900
O958        O  0.11255600  0.29655113  0.68445645    -0.97600
O959        O  0.06643691  0.30186945  0.63438833    -0.54800
O960        O  0.11268520  0.25916194  0.63926752    -0.74200
C961        C  0.12775024  0.24142104  0.62654717     0.98200
O962        O  0.17445729  0.29886429  0.57546764    -0.63000
O963        O  0.08968439  0.45061200  0.56050038    -0.57800
O964        O  0.14005920  0.33014679  0.56265814    -0.94500
O965        O  0.10467389  0.35907906  0.55774019    -0.92900
O966        O  0.13739335  0.49821874  0.56669311    -0.93300
O967        O  0.17951145  0.46178171  0.57219226    -0.92000
C968        C  0.12219215  0.33860973  0.55034491     1.17000
H969        H  0.10298320  0.48884238  0.60122125     0.33000
H970        H  0.18269946  0.40615071  0.61584421     0.43800
H971        H  0.10374515  0.30984330  0.59993239     0.37300
H972        H  0.11453681  0.39114131  0.68165364     0.33800
H973        H  0.18763039  0.52576000  0.60392600     0.25600
H974        H  0.17742778  0.35784753  0.69985863     0.31500
H975        H  0.12782878  0.28362990  0.68184832     0.37500
H976        H  0.14446927  0.52704794  0.56650026     0.31900
H977        H  0.10234087  0.44483933  0.54961046     0.30800
H978        H  0.05568927  0.37271991  0.56650554     0.32500
H979        H  0.07033067  0.28489925  0.62055992     0.31400
H980        H  0.18638786  0.43294244  0.57387062     0.35400
H981        H  0.18680291  0.31912201  0.57115833     0.28200
H982        H  0.08601340  0.52388617  0.67896701     0.32400
H983        H  0.06748688  0.30796512  0.68015511     0.35300
H984        H  0.07574400  0.44054752  0.55236067     0.27900
H985        H  0.18222353  0.27573581  0.58422390     0.40700
H986        H  0.19954404  0.44783847  0.65781551     0.30800
H987        H  0.18657984  0.50487551  0.62847844     0.38400
H988        H  0.05781004  0.32680044  0.62829605     0.30300
H989        H  0.15131254  0.34623329  0.69967925     0.30300
H990        H  0.07157090  0.48217449  0.68339917     0.30600
Zr991      Zr  0.10264273  0.95976796  0.65003514     2.17500
O992        O  0.07403324  0.99979636  0.67178123    -0.51800
O993        O  0.11243626  0.03489982  0.64143810    -0.75000
O994        O  0.11335958  0.96820937  0.69085925    -0.81800
O995        O  0.05819784  0.92874955  0.60374930    -0.83500
O996        O  0.14897881  0.94035582  0.69546322    -0.79100
O997        O  0.06227390  0.96000543  0.63890752    -0.90800
O998        O  0.13875173  0.03764263  0.61287083    -0.76700
O999        O  0.14285960  0.96434365  0.64437268    -0.86200
O1000       O  0.10841388  0.96177451  0.60926898    -0.85900
O1001       O  0.11752286  0.89541836  0.66774597    -0.72700
O1002       O  0.08726943  0.89409365  0.63464456    -0.84800
Zr1003     Zr  0.15127259  0.83715188  0.60631048     2.26400
Zr1004     Zr  0.15791446  0.90024024  0.66141374     2.06300
Zr1005     Zr  0.09441482  0.89537643  0.59410319     2.10000
Zr1006     Zr  0.14864587  0.96545421  0.60368571     1.78800
O1007       O  0.06225302  0.84889442  0.58432055    -0.93600
O1008       O  0.18425400  0.00027631  0.61532537    -0.41400
O1009       O  0.13489667  0.89951085  0.58805192    -0.78000
O1010       O  0.16570379  0.90419795  0.62090465    -0.96700
O1011       O  0.14390174  0.83385333  0.64667760    -0.90000
O1012       O  0.11064426  0.83222906  0.61097138    -0.92900
C1013       C  0.12557986  0.05554808  0.62747025     1.00900
C1014       C  0.05028843  0.94893833  0.62125170     1.13800
C1015       C  0.13125075  0.95972097  0.70313086     1.04600
O1016       O  0.19007601  0.94426160  0.67387867    -0.95000
O1017       O  0.19434585  0.86799285  0.65372854    -0.90800
O1018       O  0.19211165  0.83742315  0.61837219    -0.83900
C1019       C  0.20349962  0.85000181  0.63627431     1.11200
O1020       O  0.07272427  0.83642381  0.67968181    -0.97000
Zr1021     Zr  0.10329573  0.83071272  0.65127460     1.88900
O1022       O  0.14250071  0.76239493  0.61577657    -0.73600
O1023       O  0.16307541  0.84835357  0.69246181    -0.52900
O1024       O  0.11395991  0.79914148  0.68830361    -0.97600
O1025       O  0.06790706  0.79638027  0.63850573    -0.54800
O1026       O  0.11429640  0.75851116  0.64244887    -0.74200
C1027       C  0.12880263  0.74121671  0.62887734     0.98200
O1028       O  0.17551272  0.79256008  0.58192544    -0.63000
O1029       O  0.08777062  0.94272868  0.56124241    -0.57800
O1030       O  0.14204354  0.83360837  0.56507029    -0.94500
O1031       O  0.10524635  0.85564822  0.55995265    -0.92900
O1032       O  0.13543897  0.99626502  0.56736236    -0.93300
O1033       O  0.17820571  0.96287624  0.57416077    -0.92000
C1034       C  0.12399824  0.83917582  0.55254132     1.17000
H1035       H  0.10061015  0.98590572  0.60233572     0.33000
H1036       H  0.18169453  0.90943088  0.61782846     0.43800
H1037       H  0.10478027  0.80697664  0.60338379     0.37300
H1038       H  0.11388648  0.89293366  0.68390777     0.33800
H1039       H  0.18540997  0.02597116  0.60534414     0.25600
H1040       H  0.17653549  0.85897180  0.70119193     0.31500
H1041       H  0.12747653  0.78099672  0.68503747     0.37500
H1042       H  0.13344942  0.97146190  0.55694687     0.31900
H1043       H  0.07778730  0.92605682  0.55073457     0.30800
H1044       H  0.06849868  0.81942398  0.58458171     0.32500
H1045       H  0.07222382  0.77859449  0.62510532     0.31400
H1046       H  0.18429570  0.93331457  0.57500224     0.35400
H1047       H  0.18789797  0.81156542  0.57630652     0.28200
H1048       H  0.08241679  0.02380661  0.67909414     0.32400
H1049       H  0.06883518  0.80660397  0.68403566     0.35300
H1050       H  0.07775138  0.96582684  0.56709077     0.27900
H1051       H  0.18321863  0.77202095  0.59245817     0.40700
H1052       H  0.19563955  0.95822883  0.65960592     0.30800
H1053       H  0.18109808  0.01187444  0.63086807     0.38400
H1054       H  0.05859909  0.81990262  0.63184052     0.30300
H1055       H  0.14993302  0.85313826  0.70290243     0.30300
H1056       H  0.06949428  0.98085572  0.68471450     0.30600
Zr1057     Zr  0.35886220  0.07623273  0.10423239     2.17500
O1058       O  0.33133917  0.03362037  0.08227980    -0.51800
O1059       O  0.36848990  0.00242768  0.11463481    -0.75000
O1060       O  0.37024163  0.06743780  0.06398989    -0.81800
O1061       O  0.31336406  0.10683012  0.14796192    -0.83500
O1062       O  0.40573309  0.09602410  0.05939130    -0.79100
O1063       O  0.31782007  0.07558077  0.11300962    -0.90800
O1064       O  0.39678102  0.00043568  0.14141628    -0.76700
O1065       O  0.39941773  0.07498067  0.10930338    -0.86200
O1066       O  0.36564949  0.07337498  0.14485108    -0.85900
O1067       O  0.37243379  0.14150867  0.08644842    -0.72700
O1068       O  0.34182889  0.13977557  0.11969639    -0.84800
Zr1069     Zr  0.40317758  0.20223104  0.14835931     2.26400
Zr1070     Zr  0.41308975  0.14047807  0.09277196     2.06300
Zr1071     Zr  0.34930466  0.13744045  0.16011601     2.10000
Zr1072     Zr  0.40621329  0.07389884  0.14984226     1.78800
O1073       O  0.31818059  0.18391554  0.17247599    -0.93600
O1074       O  0.44222892  0.04226796  0.13719468    -0.41400
O1075       O  0.38980711  0.13722964  0.16596269    -0.78000
O1076       O  0.42087334  0.13837607  0.13337712    -0.96700
O1077       O  0.39639244  0.20470254  0.10782297    -0.90000
O1078       O  0.36264305  0.20283101  0.14338856    -0.92900
C1079       C  0.38236621  0.98208199  0.12800676     1.00900
C1080       C  0.30549679  0.08729431  0.13022745     1.13800
C1081       C  0.38809870  0.07582121  0.05185046     1.04600
O1082       O  0.44787894  0.09858175  0.08749058    -0.95000
O1083       O  0.44672002  0.18420896  0.09917206    -0.90800
O1084       O  0.44227315  0.21404471  0.13454274    -0.83900
C1085       C  0.45413777  0.20576601  0.11643760     1.11200
O1086       O  0.32648072  0.19319582  0.07336052    -0.97000
Zr1087     Zr  0.35583095  0.20431418  0.10282305     1.88900
O1088       O  0.39170850  0.27574893  0.13957597    -0.73600
O1089       O  0.41810430  0.18450779  0.05837248    -0.52900
O1090       O  0.36632930  0.23877817  0.06658956    -0.97600
O1091       O  0.31905361  0.23516629  0.11385890    -0.54800
O1092       O  0.36379665  0.27760355  0.11239641    -0.74200
C1093       C  0.37761851  0.29595397  0.12638388     0.98200
O1094       O  0.42692375  0.24268919  0.17536886    -0.63000
O1095       O  0.34080465  0.08530790  0.19033357    -0.57800
O1096       O  0.39430260  0.20585092  0.18961793    -0.94500
O1097       O  0.35996485  0.17336804  0.19539291    -0.92900
O1098       O  0.39724607  0.04334745  0.18743193    -0.93300
O1099       O  0.43730076  0.08228827  0.17763412    -0.92000
C1100       C  0.37729343  0.19498394  0.20247238     1.17000
H1101       H  0.35869400  0.04837498  0.15176547     0.33000
H1102       H  0.43716234  0.13747347  0.13633736     0.43800
H1103       H  0.35577779  0.22702800  0.15110715     0.37300
H1104       H  0.36884259  0.14320711  0.07022385     0.33800
H1105       H  0.44353139  0.01513886  0.14599631     0.25600
H1106       H  0.42994199  0.16951047  0.04924323     0.31500
H1107       H  0.38138735  0.25231356  0.06963950     0.37500
H1108       H  0.40503194  0.01516539  0.18763609     0.31900
H1109       H  0.33048891  0.10056347  0.20105251     0.30800
H1110       H  0.31087943  0.16843585  0.18544685     0.32500
H1111       H  0.32183279  0.24907601  0.12893048     0.31400
H1112       H  0.43739755  0.11326011  0.18126376     0.35400
H1113       H  0.44050942  0.22454267  0.17854446     0.28200
H1114       H  0.34018950  0.00941468  0.07584889     0.32400
H1115       H  0.32159569  0.22222312  0.06846741     0.35300
H1116       H  0.33088403  0.06349363  0.18297320     0.27900
H1117       H  0.43286808  0.26757641  0.16660662     0.40700
H1118       H  0.45213267  0.10319881  0.07115722     0.30800
H1119       H  0.43932390  0.03313404  0.12111270     0.38400
H1120       H  0.30925187  0.21018842  0.11755084     0.30300
H1121       H  0.40375843  0.18083023  0.04940124     0.30300
H1122       H  0.32704501  0.05135517  0.06874124     0.30600
Zr1123     Zr  0.35502480  0.57833138  0.10510373     2.17500
O1124       O  0.32578157  0.54031756  0.08294978    -0.51800
O1125       O  0.36272443  0.50313475  0.11433028    -0.75000
O1126       O  0.36593986  0.56871721  0.06451189    -0.81800
O1127       O  0.31072574  0.61289432  0.14971198    -0.83500
O1128       O  0.40170397  0.59601744  0.05984689    -0.79100
O1129       O  0.31401532  0.58334650  0.11421925    -0.90800
O1130       O  0.39073980  0.49916077  0.14136371    -0.76700
O1131       O  0.39541064  0.57233956  0.11088071    -0.86200
O1132       O  0.36138868  0.57410587  0.14588116    -0.85900
O1133       O  0.37091656  0.64233772  0.08792093    -0.72700
O1134       O  0.34032566  0.64324296  0.12125923    -0.84800
Zr1135     Zr  0.40329957  0.69891822  0.15040954     2.26400
Zr1136     Zr  0.41141065  0.63592054  0.09451371     2.06300
Zr1137     Zr  0.34745438  0.63965801  0.16170892     2.10000
Zr1138     Zr  0.40178179  0.57048291  0.15150348     1.78800
O1139       O  0.31763164  0.68964809  0.17332240    -0.93600
O1140       O  0.43698520  0.53365112  0.14072929    -0.41400
O1141       O  0.38780594  0.63538770  0.16785965    -0.78000
O1142       O  0.41884922  0.63300098  0.13528424    -0.96700
O1143       O  0.39675821  0.70187454  0.10979133    -0.90000
O1144       O  0.36288658  0.70379798  0.14543180    -0.92900
C1145       C  0.37633615  0.48191190  0.12758733     1.00900
C1146       C  0.30207960  0.59604191  0.13154595     1.13800
C1147       C  0.38385017  0.57641569  0.05225233     1.04600
O1148       O  0.44225760  0.58494541  0.08774282    -0.95000
O1149       O  0.44690819  0.67355719  0.10214714    -0.90800
O1150       O  0.44284154  0.70595380  0.13690373    -0.83900
C1151       C  0.45475634  0.69517502  0.11921669     1.11200
O1152       O  0.32740259  0.69860546  0.07469450    -0.97000
Zr1153     Zr  0.35629378  0.70639050  0.10489292     1.88900
O1154       O  0.39486449  0.77419220  0.14161503    -0.73600
O1155       O  0.42136911  0.67996808  0.06127091    -0.52900
O1156       O  0.36865278  0.74328049  0.06997683    -0.97600
O1157       O  0.31970379  0.73790498  0.11602140    -0.54800
O1158       O  0.36556943  0.77835166  0.11601379    -0.74200
C1159       C  0.38058542  0.79559167  0.12916131     0.98200
O1160       O  0.42762169  0.73666236  0.17799011    -0.63000
O1161       O  0.33666830  0.58882831  0.19178388    -0.57800
O1162       O  0.39402628  0.70378440  0.19166124    -0.94500
O1163       O  0.35930205  0.67292174  0.19733172    -0.92900
O1164       O  0.38893570  0.53989839  0.18792662    -0.93300
O1165       O  0.43209223  0.57355706  0.18048144    -0.92000
C1166       C  0.37690931  0.69352524  0.20455497     1.17000
H1167       H  0.35356364  0.54985492  0.15264523     0.33000
H1168       H  0.43502632  0.62988732  0.13851409     0.43800
H1169       H  0.35676922  0.72856303  0.15325063     0.37300
H1170       H  0.36744970  0.64494215  0.07171657     0.33800
H1171       H  0.43653832  0.50609106  0.14922072     0.25600
H1172       H  0.43295571  0.66300625  0.05281928     0.31500
H1173       H  0.38283924  0.75868344  0.07440357     0.37500
H1174       H  0.39873665  0.51436887  0.19034050     0.31900
H1175       H  0.34949317  0.58949524  0.20301060     0.30800
H1176       H  0.30969983  0.67532646  0.18630016     0.32500
H1177       H  0.32216378  0.74904333  0.13180338     0.31400
H1178       H  0.42900490  0.60021109  0.18914018     0.35400
H1179       H  0.44005341  0.71637833  0.18204138     0.28200
H1180       H  0.33345664  0.51449508  0.07681796     0.32400
H1181       H  0.32367403  0.72814410  0.06967947     0.35300
H1182       H  0.32375053  0.60265231  0.19992393     0.27900
H1183       H  0.43515360  0.75998958  0.16922313     0.40700
H1184       H  0.45279291  0.58834342  0.10104152     0.30800
H1185       H  0.43466297  0.52556573  0.12439146     0.38400
H1186       H  0.30927286  0.71318499  0.11814791     0.30300
H1187       H  0.40760120  0.67951292  0.05123407     0.30300
H1188       H  0.32258092  0.55840633  0.06924100     0.30600
Zr1189     Zr  0.35488205  0.35671943  0.39810409     2.17500
O1190       O  0.32552269  0.39576365  0.41933221    -0.51800
O1191       O  0.36350026  0.43176265  0.38879931    -0.75000
O1192       O  0.36564269  0.36664199  0.43901493    -0.81800
O1193       O  0.31054283  0.31374814  0.35480138    -0.83500
O1194       O  0.40116242  0.33851136  0.44424938    -0.79100
O1195       O  0.31390203  0.35069305  0.38827539    -0.90800
O1196       O  0.39199400  0.43471740  0.36246489    -0.76700
O1197       O  0.39525037  0.36201673  0.39252755    -0.86200
O1198       O  0.36117184  0.35941534  0.35728190    -0.85900
O1199       O  0.37057755  0.29326943  0.41597474    -0.72700
O1200       O  0.34080299  0.29075135  0.38247468    -0.84800
Zr1201     Zr  0.40378695  0.23439263  0.35439943     2.26400
Zr1202     Zr  0.41109475  0.29893567  0.40981319     2.06300
Zr1203     Zr  0.34785650  0.29267622  0.34196829     2.10000
Zr1204     Zr  0.40154638  0.36280706  0.35189764     1.78800
O1205       O  0.31804707  0.24647053  0.32623812    -0.93600
O1206       O  0.43770300  0.39844035  0.36071677    -0.41400
O1207       O  0.38813163  0.29696709  0.33616993    -0.78000
O1208       O  0.41875044  0.30111615  0.36911030    -0.96700
O1209       O  0.39708436  0.23234234  0.39488621    -0.90000
O1210       O  0.36332640  0.22921496  0.35910964    -0.92900
C1211       C  0.37774530  0.45254193  0.37607289     1.00900
C1212       C  0.30196031  0.33412910  0.37180120     1.13800
C1213       C  0.38337383  0.35831232  0.45162950     1.04600
O1214       O  0.44172450  0.34915657  0.41893897    -0.95000
O1215       O  0.44725543  0.26331651  0.40290980    -0.90800
O1216       O  0.44309301  0.22798283  0.36898796    -0.83900
C1217       C  0.45507654  0.24029354  0.38643586     1.11200
O1218       O  0.32824663  0.22987447  0.43035217    -0.97000
Zr1219     Zr  0.35666506  0.22821735  0.39963787     1.88900
O1220       O  0.39457848  0.15943895  0.36307463    -0.73600
O1221       O  0.41788704  0.25137857  0.44253737    -0.52900
O1222       O  0.37093819  0.19551501  0.43513181    -0.97600
O1223       O  0.31939429  0.19913157  0.38860513    -0.54800
O1224       O  0.36587570  0.15623185  0.38916037    -0.74200
C1225       C  0.38034128  0.13854707  0.37574026     0.98200
O1226       O  0.42949840  0.19821729  0.32764031    -0.63000
O1227       O  0.33894070  0.34650378  0.31269881    -0.57800
O1228       O  0.39509047  0.22876184  0.31305276    -0.94500
O1229       O  0.35957701  0.25635652  0.30716543    -0.92900
O1230       O  0.38715166  0.39028077  0.31521776    -0.93300
O1231       O  0.43032797  0.36028996  0.32161784    -0.92000
C1232       C  0.37771037  0.23735471  0.30007369     1.17000
H1233       H  0.35333691  0.38352432  0.35033814     0.33000
H1234       H  0.43492817  0.30431914  0.36609617     0.43800
H1235       H  0.35708712  0.20424661  0.35153648     0.37300
H1236       H  0.36690958  0.29089372  0.43212556     0.33800
H1237       H  0.43686419  0.42640402  0.35263901     0.25600
H1238       H  0.43033188  0.26531376  0.45142303     0.31500
H1239       H  0.38375587  0.17680348  0.43032716     0.37500
H1240       H  0.38255517  0.42021862  0.31832219     0.31900
H1241       H  0.34080544  0.33168108  0.29775711     0.30800
H1242       H  0.31103565  0.26339744  0.31357352     0.32500
H1243       H  0.32281640  0.17358075  0.37916489     0.31400
H1244       H  0.42908591  0.33099648  0.31523514     0.35400
H1245       H  0.44219231  0.21857335  0.32468851     0.28200
H1246       H  0.33345213  0.42081134  0.42610527     0.32400
H1247       H  0.32562973  0.19953302  0.43463936     0.35300
H1248       H  0.32221109  0.35123706  0.31400744     0.27900
H1249       H  0.43652291  0.17428884  0.33640870     0.40700
H1250       H  0.44892352  0.33752199  0.43312713     0.30800
H1251       H  0.43665856  0.40572805  0.37728498     0.38400
H1252       H  0.31304099  0.22014266  0.37746061     0.30300
H1253       H  0.40413760  0.25434535  0.45237974     0.30300
H1254       H  0.32159953  0.37732477  0.43268514     0.30600
Zr1255     Zr  0.35702419  0.85732216  0.39977232     2.17500
O1256       O  0.32863499  0.89805179  0.42138778    -0.51800
O1257       O  0.36541162  0.93179102  0.38921134    -0.75000
O1258       O  0.36830522  0.86775173  0.44049206    -0.81800
O1259       O  0.31191843  0.81807436  0.35578681    -0.83500
O1260       O  0.40331747  0.83762472  0.44618388    -0.79100
O1261       O  0.31582573  0.85174471  0.39018228    -0.90800
O1262       O  0.39348661  0.93439337  0.36241915    -0.76700
O1263       O  0.39742548  0.86198803  0.39400037    -0.86200
O1264       O  0.36309740  0.85902285  0.35896296    -0.85900
O1265       O  0.37261708  0.79380021  0.41775555    -0.72700
O1266       O  0.34206598  0.79166707  0.38470288    -0.84800
Zr1267     Zr  0.40524202  0.73398649  0.35631381     2.26400
Zr1268     Zr  0.41316219  0.79874295  0.41142528     2.06300
Zr1269     Zr  0.34898642  0.79252658  0.34417886     2.10000
Zr1270     Zr  0.40345564  0.86212063  0.35331555     1.78800
O1271       O  0.31924760  0.74215956  0.33251553    -0.93600
O1272       O  0.43995367  0.89508011  0.36364391    -0.41400
O1273       O  0.38932137  0.79635941  0.33804850    -0.78000
O1274       O  0.42050403  0.80073427  0.37066443    -0.96700
O1275       O  0.39847352  0.73225487  0.39692150    -0.90000
O1276       O  0.36477679  0.72931436  0.36131188    -0.92900
C1277       C  0.37916387  0.95237944  0.37587420     1.00900
C1278       C  0.30353736  0.83699133  0.37342283     1.13800
C1279       C  0.38579242  0.85861220  0.45328452     1.04600
O1280       O  0.44337750  0.84908315  0.42173003    -0.95000
O1281       O  0.44955515  0.76435876  0.40352939    -0.90800
O1282       O  0.44542300  0.73023405  0.36912893    -0.83900
C1283       C  0.45746272  0.74283932  0.38649924     1.11200
O1284       O  0.32806792  0.73309235  0.43108067    -0.97000
Zr1285     Zr  0.35790849  0.72900558  0.40178710     1.88900
O1286       O  0.39629444  0.65926970  0.36607418    -0.73600
O1287       O  0.42136623  0.74952872  0.44307019    -0.52900
O1288       O  0.36785907  0.69787165  0.43913445    -0.97600
O1289       O  0.32147106  0.69937261  0.38847716    -0.54800
O1290       O  0.36808482  0.65668874  0.39273974    -0.74200
C1291       C  0.38232011  0.63866862  0.37918812     0.98200
O1292       O  0.42965959  0.69449224  0.32969494    -0.63000
O1293       O  0.33936614  0.84277344  0.31335142    -0.57800
O1294       O  0.39570750  0.72902133  0.31497444    -0.94500
O1295       O  0.36023145  0.75710106  0.30905129    -0.92900
O1296       O  0.39098933  0.89256697  0.31663475    -0.93300
O1297       O  0.43196145  0.85854636  0.32277003    -0.92000
C1298       C  0.37828881  0.73778744  0.30202586     1.17000
H1299       H  0.35534917  0.88306475  0.35187988     0.33000
H1300       H  0.43658373  0.80457778  0.36740208     0.43800
H1301       H  0.35862321  0.70415438  0.35383815     0.37300
H1302       H  0.36898613  0.79167959  0.43392308     0.33800
H1303       H  0.43908702  0.92460659  0.35741658     0.25600
H1304       H  0.43126887  0.76601211  0.45374123     0.31500
H1305       H  0.36552569  0.66663950  0.43740582     0.37500
H1306       H  0.38583434  0.86767292  0.30743271     0.31900
H1307       H  0.32964407  0.82615773  0.30257908     0.30800
H1308       H  0.31301407  0.75396543  0.31791511     0.32500
H1309       H  0.32546001  0.67913108  0.37602056     0.31400
H1310       H  0.43996392  0.83096847  0.32534885     0.35400
H1311       H  0.44223892  0.71432211  0.32549376     0.28200
H1312       H  0.33697504  0.92290743  0.42786283     0.32400
H1313       H  0.32251208  0.70337445  0.43326302     0.35300
H1314       H  0.32873121  0.86368406  0.32036500     0.27900
H1315       H  0.43703625  0.67161552  0.33896874     0.40700
H1316       H  0.45075584  0.83646784  0.43558107     0.30800
H1317       H  0.43927615  0.89867808  0.38058226     0.38400
H1318       H  0.31365014  0.72337221  0.38048348     0.30300
H1319       H  0.40662200  0.74656218  0.45132839     0.30300
H1320       H  0.32469990  0.88005495  0.43490839     0.30600
Zr1321     Zr  0.65086905  0.35902328  0.10511711     2.17500
O1322       O  0.67912545  0.40247855  0.08468519    -0.51800
O1323       O  0.64072995  0.43326736  0.11491421    -0.75000
O1324       O  0.64081202  0.36923386  0.06432922    -0.81800
O1325       O  0.69624054  0.32290163  0.14984173    -0.83500
O1326       O  0.60526257  0.34139511  0.05886137    -0.79100
O1327       O  0.69177903  0.35559485  0.11499622    -0.90800
O1328       O  0.61377311  0.43544016  0.14296481    -0.76700
O1329       O  0.61061601  0.36412662  0.11118156    -0.86200
O1330       O  0.64512238  0.35944185  0.14586357    -0.85900
O1331       O  0.63536318  0.29572102  0.08685114    -0.72700
O1332       O  0.66618285  0.29262564  0.11943990    -0.84800
Zr1333     Zr  0.60330373  0.23458334  0.14808675     2.26400
Zr1334     Zr  0.59487812  0.30169152  0.09344253     2.06300
Zr1335     Zr  0.65964524  0.29270230  0.16005028     2.10000
Zr1336     Zr  0.60480942  0.36252456  0.15188586     1.78800
O1337       O  0.68963738  0.24171111  0.17024715    -0.93600
O1338       O  0.56848700  0.39694500  0.14226308    -0.41400
O1339       O  0.61937623  0.29646432  0.16651200    -0.78000
O1340       O  0.58772521  0.30158395  0.13423272    -0.96700
O1341       O  0.60942693  0.23445970  0.10747002    -0.90000
O1342       O  0.64373846  0.22967213  0.14290166    -0.92900
C1343       C  0.62732020  0.45352506  0.12871190     1.00900
C1344       C  0.70407810  0.34259272  0.13212479     1.13800
C1345       C  0.62318911  0.36116698  0.05164372     1.04600
O1346       O  0.56507467  0.35534567  0.08779648    -0.95000
O1347       O  0.55921905  0.26450435  0.10066342    -0.90800
O1348       O  0.56339153  0.22972798  0.13491023    -0.83900
C1349       C  0.55134683  0.24226405  0.11750360     1.11200
O1350       O  0.67903099  0.23313796  0.07241353    -0.97000
Zr1351     Zr  0.64982226  0.23008444  0.10236100     1.88900
O1352       O  0.61170882  0.15996643  0.13830184    -0.73600
O1353       O  0.58305468  0.26050504  0.05981841    -0.52900
O1354       O  0.63611295  0.19855695  0.06645050    -0.97600
O1355       O  0.68637023  0.19768981  0.11323484    -0.54800
O1356       O  0.63965341  0.15733881  0.11142067    -0.74200
C1357       C  0.62529519  0.13929062  0.12493882     0.98200
O1358       O  0.57905327  0.19490206  0.17488938    -0.63000
O1359       O  0.66954627  0.34196433  0.19104109    -0.57800
O1360       O  0.61268958  0.22871331  0.18926998    -0.94500
O1361       O  0.64797795  0.25733827  0.19519133    -0.92900
O1362       O  0.61838086  0.39338990  0.18795635    -0.93300
O1363       O  0.57651984  0.35391317  0.18237024    -0.92000
C1364       C  0.62996057  0.23780680  0.20226531     1.17000
H1365       H  0.65294584  0.38333051  0.15297881     0.33000
H1366       H  0.57161472  0.30476502  0.13757060     0.43800
H1367       H  0.64992675  0.20429939  0.15020527     0.37300
H1368       H  0.63890980  0.29370713  0.07065858     0.33800
H1369       H  0.56707082  0.42077076  0.15339403     0.25600
H1370       H  0.57297257  0.28004690  0.05089488     0.31500
H1371       H  0.62107282  0.18566432  0.07025917     0.37500
H1372       H  0.60885978  0.41929588  0.19016740     0.31900
H1373       H  0.65598409  0.34209251  0.20126507     0.30800
H1374       H  0.69652578  0.25317893  0.18458733     0.32500
H1375       H  0.68277959  0.17803039  0.12615566     0.31400
H1376       H  0.57912546  0.32461991  0.18843153     0.35400
H1377       H  0.56690148  0.21519622  0.17958353     0.28200
H1378       H  0.67048613  0.42691174  0.07804376     0.32400
H1379       H  0.68132289  0.20313114  0.06742115     0.35300
H1380       H  0.68155231  0.32691664  0.20005511     0.27900
H1381       H  0.57111185  0.17278551  0.16562743     0.40700
H1382       H  0.55477165  0.35187351  0.10120564     0.30800
H1383       H  0.57122216  0.41128907  0.12726549     0.38400
H1384       H  0.69522320  0.22120376  0.12044253     0.30300
H1385       H  0.59706693  0.25776948  0.05035004     0.30300
H1386       H  0.68390233  0.38524345  0.07121961     0.30600
Zr1387     Zr  0.64994361  0.85712749  0.10436013     2.17500
O1388       O  0.67751318  0.90145933  0.08352935    -0.51800
O1389       O  0.64069150  0.93179280  0.11374087    -0.75000
O1390       O  0.63966428  0.86468258  0.06349036    -0.81800
O1391       O  0.69518040  0.82066999  0.14836142    -0.83500
O1392       O  0.60397823  0.83715444  0.05815055    -0.79100
O1393       O  0.69114051  0.85163630  0.11312779    -0.90800
O1394       O  0.61110561  0.93462551  0.13877703    -0.76700
O1395       O  0.60952632  0.86139966  0.11001485    -0.86200
O1396       O  0.64413142  0.85965251  0.14513641    -0.85900
O1397       O  0.63474843  0.79290361  0.08674035    -0.72700
O1398       O  0.66539886  0.79212730  0.12007300    -0.84800
Zr1399     Zr  0.60297948  0.73402071  0.14856240     2.26400
Zr1400     Zr  0.59420749  0.79766577  0.09301130     2.06300
Zr1401     Zr  0.65857637  0.79371401  0.16053382     2.10000
Zr1402     Zr  0.60379418  0.86228428  0.15076861     1.78800
O1403       O  0.68961974  0.74726435  0.17353182    -0.93600
O1404       O  0.56631663  0.89459075  0.14410097    -0.41400
O1405       O  0.61828841  0.79698962  0.16655196    -0.78000
O1406       O  0.58700690  0.80007817  0.13377834    -0.96700
O1407       O  0.60956733  0.73196420  0.10801762    -0.90000
O1408       O  0.64345620  0.72977697  0.14376260    -0.92900
C1409       C  0.62593313  0.95257524  0.12577243     1.00900
C1410       C  0.70342665  0.83846446  0.13025710     1.13800
C1411       C  0.62208669  0.85620303  0.05081711     1.04600
O1412       O  0.56261643  0.84633447  0.08463709    -0.95000
O1413       O  0.55888654  0.75914064  0.10044228    -0.90800
O1414       O  0.56344183  0.72668284  0.13525890    -0.83900
C1415       C  0.55138299  0.73710106  0.11752954     1.11200
O1416       O  0.68112154  0.73880492  0.07562376    -0.97000
Zr1417     Zr  0.65012910  0.72895240  0.10327636     1.88900
O1418       O  0.61224804  0.65938730  0.13945768    -0.73600
O1419       O  0.58576815  0.75052274  0.06066374    -0.52900
O1420       O  0.64195960  0.69565563  0.06620603    -0.97600
O1421       O  0.68580357  0.69658478  0.11683758    -0.54800
O1422       O  0.63881797  0.65647984  0.11104557    -0.74200
C1423       C  0.62510605  0.63877629  0.12532498     0.98200
O1424       O  0.57802412  0.69622717  0.17559296    -0.63000
O1425       O  0.66683771  0.84582031  0.19065186    -0.57800
O1426       O  0.61202296  0.72857573  0.18975677    -0.94500
O1427       O  0.64774472  0.75571338  0.19521277    -0.92900
O1428       O  0.61934388  0.89736788  0.18489687    -0.93300
O1429       O  0.57789244  0.85505522  0.18343212    -0.92000
C1430       C  0.62962883  0.73673283  0.20244301     1.17000
H1431       H  0.65184340  0.88401974  0.15186069     0.33000
H1432       H  0.57082827  0.80272890  0.13693066     0.43800
H1433       H  0.64971868  0.70478961  0.15137811     0.37300
H1434       H  0.63835397  0.79005819  0.07060903     0.33800
H1435       H  0.56641848  0.92112541  0.15342019     0.25600
H1436       H  0.57255922  0.76409601  0.05273182     0.31500
H1437       H  0.62502202  0.69501314  0.06517192     0.37500
H1438       H  0.61207973  0.92602690  0.18505519     0.31900
H1439       H  0.65686161  0.83762925  0.20372387     0.30800
H1440       H  0.69578729  0.76125895  0.18754386     0.32500
H1441       H  0.68115448  0.67385401  0.12780247     0.31400
H1442       H  0.58439338  0.83147652  0.19286788     0.35400
H1443       H  0.56522292  0.71606861  0.17898655     0.28200
H1444       H  0.66844125  0.92476216  0.07632157     0.32400
H1445       H  0.68661722  0.70964327  0.07188102     0.35300
H1446       H  0.68255850  0.83882220  0.19595227     0.27900
H1447       H  0.57100478  0.67233112  0.16687506     0.40700
H1448       H  0.55352152  0.84701362  0.09901688     0.30800
H1449       H  0.56680871  0.90480180  0.12792969     0.38400
H1450       H  0.69303868  0.71880536  0.12659999     0.30300
H1451       H  0.59874603  0.75431362  0.04988746     0.30300
H1452       H  0.68278005  0.88376145  0.07043081     0.30600
Zr1453     Zr  0.65090016  0.08142708  0.39965888     2.17500
O1454       O  0.67866969  0.04018675  0.42218998    -0.51800
O1455       O  0.64304792  0.00630625  0.38946462    -0.75000
O1456       O  0.63991796  0.07408713  0.44044523    -0.81800
O1457       O  0.69560985  0.11619759  0.35534541    -0.83500
O1458       O  0.60527074  0.10576097  0.44574026    -0.79100
O1459       O  0.69220786  0.08670263  0.39094423    -0.90800
O1460       O  0.61438584  0.00351185  0.36314823    -0.76700
O1461       O  0.61025801  0.07813710  0.39474081    -0.86200
O1462       O  0.64393037  0.07705176  0.35904616    -0.85900
O1463       O  0.63617242  0.14685548  0.41622145    -0.72700
O1464       O  0.66619335  0.14563787  0.38297079    -0.84800
Zr1465     Zr  0.60346845  0.20363219  0.35381309     2.26400
Zr1466     Zr  0.59542484  0.14332430  0.41044222     2.06300
Zr1467     Zr  0.65865197  0.14167232  0.34265361     2.10000
Zr1468     Zr  0.60335569  0.07534355  0.35421246     1.78800
O1469       O  0.69009681  0.18542389  0.32825127    -0.93600
O1470       O  0.56878993  0.03865137  0.36718906    -0.41400
O1471       O  0.61815369  0.13909901  0.33699740    -0.78000
O1472       O  0.58733101  0.13896844  0.36992213    -0.96700
O1473       O  0.61071630  0.20808055  0.39427131    -0.90000
O1474       O  0.64404131  0.20685259  0.35832218    -0.92900
C1475       C  0.62918269  0.98557843  0.37620719     1.00900
C1476       C  0.70426380  0.09937016  0.37359693     1.13800
C1477       C  0.62275695  0.08476280  0.45311040     1.04600
O1478       O  0.56388744  0.09501395  0.41939899    -0.95000
O1479       O  0.56010497  0.18167086  0.40248029    -0.90800
O1480       O  0.56401826  0.21257804  0.36716229    -0.83900
C1481       C  0.55224099  0.20266594  0.38511135     1.11200
O1482       O  0.68280467  0.20508789  0.42639424    -0.97000
Zr1483     Zr  0.65132369  0.21004976  0.39871477     1.88900
O1484       O  0.61269661  0.27873133  0.36182798    -0.73600
O1485       O  0.58706494  0.19092877  0.44253953    -0.52900
O1486       O  0.64196329  0.24106563  0.43605800    -0.97600
O1487       O  0.68668235  0.24264513  0.38466173    -0.54800
O1488       O  0.64055313  0.28203722  0.38910160    -0.74200
C1489       C  0.62637100  0.29959160  0.37514226     0.98200
O1490       O  0.57883319  0.23881496  0.32537635    -0.63000
O1491       O  0.66564521  0.08785526  0.31309315    -0.57800
O1492       O  0.61248847  0.20692373  0.31259970    -0.94500
O1493       O  0.64798939  0.17877912  0.30770457    -0.92900
O1494       O  0.61392755  0.04432212  0.31727909    -0.93300
O1495       O  0.57194934  0.07967310  0.32648458    -0.92000
C1496       C  0.63006685  0.19799244  0.30015579     1.17000
H1497       H  0.65134562  0.05243606  0.35228773     0.33000
H1498       H  0.57109042  0.13632718  0.36697658     0.43800
H1499       H  0.65036838  0.23123502  0.35022028     0.37300
H1500       H  0.64008348  0.14984762  0.43230016     0.33800
H1501       H  0.56793020  0.01234594  0.35772839     0.25600
H1502       H  0.57668428  0.17428554  0.45265979     0.31500
H1503       H  0.64210553  0.27246132  0.43364816     0.37500
H1504       H  0.60551362  0.01679971  0.31659040     0.31900
H1505       H  0.66387470  0.10308662  0.29818825     0.30800
H1506       H  0.69744562  0.16768708  0.31623361     0.32500
H1507       H  0.68194190  0.26287434  0.37235578     0.31400
H1508       H  0.57096274  0.11045333  0.32243065     0.35400
H1509       H  0.56620734  0.21839510  0.32224955     0.28200
H1510       H  0.66988303  0.01659556  0.42942969     0.32400
H1511       H  0.68730542  0.23502253  0.42974810     0.35300
H1512       H  0.68226150  0.08167024  0.31419001     0.27900
H1513       H  0.57157554  0.26320765  0.33341018     0.40700
H1514       H  0.55482462  0.09332875  0.40495821     0.30800
H1515       H  0.57252386  0.02819105  0.38290076     0.38400
H1516       H  0.69464639  0.21930478  0.37639924     0.30300
H1517       H  0.60162236  0.19287348  0.45131033     0.30300
H1518       H  0.68329833  0.05894063  0.43514381     0.30600
Zr1519     Zr  0.65109896  0.57904843  0.39927447     2.17500
O1520       O  0.67732174  0.53136986  0.41991681    -0.51800
O1521       O  0.64137957  0.50532656  0.38881472    -0.75000
O1522       O  0.64062938  0.57101575  0.44004256    -0.81800
O1523       O  0.69684857  0.61118235  0.35530624    -0.83500
O1524       O  0.60556108  0.60113614  0.44480824    -0.79100
O1525       O  0.69232997  0.58322144  0.39126472    -0.90800
O1526       O  0.61219942  0.50376065  0.36299176    -0.76700
O1527       O  0.61066220  0.57671356  0.39322173    -0.86200
O1528       O  0.64503640  0.57695566  0.35848758    -0.85900
O1529       O  0.63696040  0.64388854  0.41679603    -0.72700
O1530       O  0.66759710  0.64334287  0.38393066    -0.84800
Zr1531     Zr  0.60599194  0.70515177  0.35455777     2.26400
Zr1532     Zr  0.59644552  0.64124474  0.40997519     2.06300
Zr1533     Zr  0.66079521  0.64196196  0.34343100     2.10000
Zr1534     Zr  0.60460925  0.57674916  0.35251068     1.78800
O1535       O  0.69154517  0.69084633  0.33271827    -0.93600
O1536       O  0.56723605  0.54558941  0.36092318    -0.41400
O1537       O  0.62040038  0.64108123  0.33714351    -0.78000
O1538       O  0.58893105  0.64006815  0.36920179    -0.96700
O1539       O  0.61249808  0.70641886  0.39514057    -0.90000
O1540       O  0.64656416  0.70684594  0.35984006    -0.92900
C1541       C  0.62685016  0.48530696  0.37607651     1.00900
C1542       C  0.70467728  0.59393560  0.37381286     1.13800
C1543       C  0.62308652  0.58047408  0.45242039     1.04600
O1544       O  0.56397674  0.59422656  0.41751888    -0.95000
O1545       O  0.56203195  0.68168194  0.40231720    -0.90800
O1546       O  0.56667268  0.71649634  0.36825379    -0.83900
C1547       C  0.55463357  0.70557641  0.38590637     1.11200
O1548       O  0.68203236  0.69936767  0.43052826    -0.97000
Zr1549     Zr  0.65296901  0.70737410  0.40047155     1.88900
O1550       O  0.61680177  0.77915198  0.36360257    -0.73600
O1551       O  0.58789808  0.68732518  0.44264125    -0.52900
O1552       O  0.64012093  0.74031302  0.43621235    -0.97600
O1553       O  0.69036357  0.73700214  0.39049901    -0.54800
O1554       O  0.64497896  0.78049034  0.39051848    -0.74200
C1555       C  0.63102417  0.79915444  0.37676338     0.98200
O1556       O  0.58241232  0.74403466  0.32662608    -0.63000
O1557       O  0.67055122  0.59121259  0.31316534    -0.57800
O1558       O  0.61485700  0.70793687  0.31319086    -0.94500
O1559       O  0.64915666  0.67539170  0.30765735    -0.92900
O1560       O  0.61820476  0.54692781  0.31624705    -0.93300
O1561       O  0.57626257  0.58266548  0.32172309    -0.92000
C1562       C  0.63168968  0.69634681  0.30029746     1.17000
H1563       H  0.65233614  0.55231981  0.35163565     0.33000
H1564       H  0.57269204  0.63869354  0.36599421     0.43800
H1565       H  0.65334213  0.73134819  0.35225949     0.37300
H1566       H  0.64055558  0.64624454  0.43297617     0.33800
H1567       H  0.56751912  0.51686302  0.35373516     0.25600
H1568       H  0.57638145  0.67124746  0.45172237     0.31500
H1569       H  0.62538420  0.75434053  0.43228082     0.37500
H1570       H  0.62171739  0.51651053  0.31957468     0.31900
H1571       H  0.65700689  0.59076474  0.30282211     0.30800
H1572       H  0.69956489  0.67638513  0.31989641     0.32500
H1573       H  0.68810137  0.75101787  0.37532630     0.31400
H1574       H  0.57310528  0.61375198  0.32049159     0.35400
H1575       H  0.56889936  0.72556905  0.32370741     0.28200
H1576       H  0.66756387  0.50929809  0.42729017     0.32400
H1577       H  0.68501304  0.72868804  0.43627614     0.35300
H1578       H  0.68260712  0.60573148  0.30405197     0.27900
H1579       H  0.57634259  0.76920671  0.33495624     0.40700
H1580       H  0.57076044  0.56544706  0.41980483     0.30800
H1581       H  0.56757231  0.53977144  0.37770775     0.38400
H1582       H  0.70003746  0.71173103  0.38712299     0.30300
H1583       H  0.60194318  0.68677784  0.45227986     0.30300
H1584       H  0.68348961  0.54843602  0.43289758     0.30600
Zr1585     Zr  0.85729013  0.11285180  0.39914469     2.17500
O1586       O  0.82989974  0.15697609  0.42016487    -0.51800
O1587       O  0.86527208  0.18738589  0.38790797    -0.75000
O1588       O  0.86812039  0.12123906  0.43984474    -0.81800
O1589       O  0.81211739  0.07849911  0.35446054    -0.83500
O1590       O  0.90320828  0.09127460  0.44565911    -0.79100
O1591       O  0.81597305  0.10590148  0.39051447    -0.90800
O1592       O  0.89337345  0.18910648  0.36105568    -0.76700
O1593       O  0.89793503  0.11561228  0.39444219    -0.86200
O1594       O  0.86421066  0.11550694  0.35856117    -0.85900
O1595       O  0.87211255  0.04830291  0.41704151    -0.72700
O1596       O  0.84152134  0.04843867  0.38345414    -0.84800
Zr1597     Zr  0.90377200  0.98825296  0.35574975     2.26400
Zr1598     Zr  0.91284230  0.05118580  0.41125701     2.06300
Zr1599     Zr  0.84896412  0.05059618  0.34314194     2.10000
Zr1600     Zr  0.90480693  0.11650404  0.35396080     1.78800
O1601       O  0.81791340  0.00452886  0.32994977    -0.93600
O1602       O  0.93914933  0.15370844  0.36723377    -0.41400
O1603       O  0.88947697  0.05229597  0.33777240    -0.78000
O1604       O  0.92054769  0.05317209  0.37070965    -0.96700
O1605       O  0.89682302  0.98631208  0.39619464    -0.90000
O1606       O  0.86320367  0.98592133  0.36015559    -0.92900
C1607       C  0.87886952  0.20753867  0.37418549     1.00900
C1608       C  0.80379257  0.09470539  0.37291179     1.13800
C1609       C  0.88546431  0.11171612  0.45268139     1.04600
O1610       O  0.94496101  0.09966080  0.41746118    -0.95000
O1611       O  0.94781143  0.01094006  0.40439440    -0.90800
O1612       O  0.94318320  0.97880217  0.36962646    -0.83900
C1613       C  0.95533425  0.98886068  0.38737123     1.11200
O1614       O  0.82846027  0.99567096  0.43135443    -0.97000
Zr1615     Zr  0.85626955  0.98491963  0.40061651     1.88900
O1616       O  0.89380321  0.91417083  0.36542864    -0.73600
O1617       O  0.92175898  0.00584959  0.44439961    -0.52900
O1618       O  0.86743418  0.94616589  0.43540156    -0.97600
O1619       O  0.81879330  0.95711417  0.38934347    -0.54800
O1620       O  0.86467257  0.91205070  0.39108359    -0.74200
C1621       C  0.87939314  0.89383321  0.37814223     1.07800
O1622       O  0.92736869  0.94799019  0.32874736    -0.63000
O1623       O  0.84193697  0.10385862  0.31308378    -0.57800
O1624       O  0.89496077  0.98444441  0.31436575    -0.94500
O1625       O  0.85966817  0.01316155  0.30850708    -0.92900
O1626       O  0.89597994  0.14374426  0.31555801    -0.93300
O1627       O  0.93732529  0.10892215  0.32803331    -0.92000
C1628       C  0.87755046  0.99331275  0.30148550     1.17000
H1629       H  0.85688163  0.13993459  0.35140200     0.33000
H1630       H  0.93680336  0.05512316  0.36778094     0.43800
H1631       H  0.85664629  0.96129793  0.35252235     0.37300
H1632       H  0.86833508  0.04589355  0.43315781     0.33800
H1633       H  0.94032837  0.17931680  0.35718573     0.25600
H1634       H  0.93465746  0.02047780  0.45226329     0.31500
H1635       H  0.87378691  0.96827809  0.44580801     0.37500
H1636       H  0.90499337  0.17050791  0.31419272     0.31900
H1637       H  0.85190473  0.09538362  0.30008691     0.30800
H1638       H  0.81081852  0.02025866  0.31689806     0.32500
H1639       H  0.82185126  0.93770321  0.37624883     0.31400
H1640       H  0.93787729  0.07794746  0.32444655     0.35400
H1641       H  0.94009208  0.96743041  0.32447900     0.28200
H1642       H  0.83898999  0.18049634  0.42706731     0.32400
H1643       H  0.82257821  0.96675390  0.43514939     0.35300
H1644       H  0.82616146  0.09790431  0.30760618     0.27900
H1645       H  0.93458820  0.92465153  0.33781171     0.40700
H1646       H  0.95213316  0.08964307  0.43201328     0.30800
H1647       H  0.93507292  0.16527878  0.38256076     0.38400
H1648       H  0.81071874  0.98185124  0.38231777     0.30300
H1649       H  0.90863804  0.00924239  0.45501165     0.30300
H1650       H  0.82488107  0.13930573  0.43343929     0.30600
Zr1651     Zr  0.85674536  0.61091468  0.40015940     2.17500
O1652       O  0.82772683  0.64984519  0.42192191    -0.51800
O1653       O  0.86465169  0.68647684  0.39143733    -0.75000
O1654       O  0.86691353  0.61788390  0.44129608    -0.81800
O1655       O  0.81230722  0.57224489  0.35547371    -0.83500
O1656       O  0.90234245  0.58921398  0.44657612    -0.79100
O1657       O  0.81573238  0.60361319  0.39054760    -0.90800
O1658       O  0.89263573  0.69045268  0.36457552    -0.76700
O1659       O  0.89717688  0.61686407  0.39486825    -0.86200
O1660       O  0.86323433  0.61562673  0.35944347    -0.85900
O1661       O  0.87265933  0.54658793  0.41699585    -0.72700
O1662       O  0.84265555  0.54608789  0.38341866    -0.84800
Zr1663     Zr  0.90549526  0.49050216  0.35479568     2.26400
Zr1664     Zr  0.91322719  0.55306491  0.41106805     2.06300
Zr1665     Zr  0.84971416  0.55015855  0.34297855     2.10000
Zr1666     Zr  0.90364508  0.61924292  0.35428871     1.78800
O1667       O  0.81944309  0.50390972  0.32817928    -0.93600
O1668       O  0.93847510  0.65712739  0.36548888    -0.41400
O1669       O  0.89004431  0.55434263  0.33746713    -0.78000
O1670       O  0.92073027  0.55643584  0.37040153    -0.96700
O1671       O  0.89887569  0.48711576  0.39530671    -0.90000
O1672       O  0.86504320  0.48574563  0.35923862    -0.92900
C1673       C  0.87834096  0.70773313  0.37832972     1.00900
C1674       C  0.80367585  0.58927006  0.37354995     1.13800
C1675       C  0.88438244  0.60854959  0.45403425     1.04600
O1676       O  0.94292368  0.60663272  0.41737232    -0.95000
O1677       O  0.94918944  0.51702393  0.40333240    -0.90800
O1678       O  0.94477449  0.48294522  0.36909691    -0.83900
C1679       C  0.95687456  0.49443666  0.38660202     1.11200
O1680       O  0.82986820  0.48460386  0.43034153    -0.97000
Zr1681     Zr  0.85839936  0.48274307  0.39973551     1.88900
O1682       O  0.89533249  0.41500509  0.36190643    -0.73600
O1683       O  0.92425714  0.50801736  0.44365753    -0.52900
O1684       O  0.87238247  0.44808604  0.43478606    -0.97600
O1685       O  0.82115045  0.45448426  0.38802588    -0.54800
O1686       O  0.86691121  0.41101157  0.38829496    -0.74200
C1687       C  0.88100851  0.39373351  0.37435177     0.98200
O1688       O  0.93075201  0.45235847  0.32834412    -0.63000
O1689       O  0.84109302  0.60542690  0.31443444    -0.57800
O1690       O  0.89777594  0.48887175  0.31318621    -0.94500
O1691       O  0.86200205  0.51584652  0.30768655    -0.92900
O1692       O  0.89089310  0.65117237  0.31805982    -0.93300
O1693       O  0.93362270  0.61538736  0.32522095    -0.92000
C1694       C  0.88028465  0.49754081  0.30039458     1.17000
H1695       H  0.85546231  0.64006174  0.35279057     0.33000
H1696       H  0.93690340  0.55965627  0.36733657     0.43800
H1697       H  0.85876790  0.46125984  0.35125243     0.37300
H1698       H  0.86893183  0.54297794  0.43306049     0.33800
H1699       H  0.93858693  0.68338086  0.35585192     0.25600
H1700       H  0.93254533  0.52727409  0.45436812     0.31500
H1701       H  0.86628998  0.41851298  0.43417207     0.37500
H1702       H  0.89825633  0.67974722  0.31766173     0.31900
H1703       H  0.84981004  0.59714305  0.30052706     0.30800
H1704       H  0.81583337  0.51539038  0.31264482     0.32500
H1705       H  0.82417890  0.43760902  0.37393926     0.31400
H1706       H  0.92846006  0.59266087  0.31451363     0.35400
H1707       H  0.94372995  0.47197298  0.32520486     0.28200
H1708       H  0.83584699  0.67433143  0.42905424     0.32400
H1709       H  0.82593282  0.45428904  0.43349222     0.35300
H1710       H  0.82483793  0.60054092  0.31021591     0.27900
H1711       H  0.93745018  0.42833221  0.33730125     0.40700
H1712       H  0.95215477  0.59520176  0.43036583     0.30800
H1713       H  0.93545717  0.66758379  0.38129308     0.38400
H1714       H  0.81243725  0.47972169  0.38244889     0.30300
H1715       H  0.90967413  0.50133390  0.45158343     0.30300
H1716       H  0.82357513  0.63093101  0.43501052     0.30600
Zr1717     Zr  0.85630159  0.33418152  0.10504403     2.17500
O1718       O  0.82845256  0.29086066  0.08394371    -0.51800
O1719       O  0.86467286  0.25987874  0.11599052    -0.75000
O1720       O  0.86765538  0.32332628  0.06451754    -0.81800
O1721       O  0.81173437  0.36981820  0.14962592    -0.83500
O1722       O  0.90321484  0.35140432  0.05973714    -0.79100
O1723       O  0.81513915  0.34031606  0.11412443    -0.90800
O1724       O  0.89402716  0.25719754  0.14162615    -0.76700
O1725       O  0.89674024  0.32993359  0.11081956    -0.86200
O1726       O  0.86281245  0.33236838  0.14582506    -0.85900
O1727       O  0.87146748  0.39791093  0.08686379    -0.72700
O1728       O  0.84108752  0.39970646  0.12007388    -0.84800
Zr1729     Zr  0.90391780  0.45821810  0.14853662     2.26400
Zr1730     Zr  0.91196035  0.39344332  0.09357257     2.06300
Zr1731     Zr  0.84834927  0.39849075  0.16056204     2.10000
Zr1732     Zr  0.90324419  0.32980433  0.15142500     1.78800
O1733       O  0.81848280  0.44940391  0.17088615    -0.93600
O1734       O  0.93986236  0.29696796  0.14172365    -0.41400
O1735       O  0.88873478  0.39517112  0.16676708    -0.78000
O1736       O  0.91974522  0.39197268  0.13425561    -0.96700
O1737       O  0.89708120  0.45969256  0.10793937    -0.90000
O1738       O  0.86341136  0.46211001  0.14343966    -0.92900
C1739       C  0.87904560  0.23928393  0.12873902     1.00900
C1740       C  0.80312587  0.35279911  0.13150260     1.13800
C1741       C  0.88561735  0.33103999  0.05227329     1.04600
O1742       O  0.94382634  0.34605616  0.08442642    -0.95000
O1743       O  0.94745482  0.43023196  0.10095276    -0.90800
O1744       O  0.94349050  0.46567820  0.13477016    -0.83900
C1745       C  0.95535406  0.45343277  0.11730051     1.11200
O1746       O  0.82786201  0.45385071  0.07256116    -0.97000
Zr1747     Zr  0.85656056  0.46269275  0.10288209     1.88900
O1748       O  0.89394915  0.53259479  0.13927109    -0.73600
O1749       O  0.91921769  0.44122760  0.06112311    -0.52900
O1750       O  0.86825362  0.49818311  0.06728470    -0.97600
O1751       O  0.81968683  0.49325303  0.11380498    -0.54800
O1752       O  0.86486312  0.53554625  0.11332355    -0.74200
C1753       C  0.87947852  0.55334637  0.12670972     0.98200
O1754       O  0.92850081  0.49830922  0.17493797    -0.63000
O1755       O  0.83698778  0.34957285  0.19128179    -0.57800
O1756       O  0.89519911  0.46291175  0.18993324    -0.94500
O1757       O  0.86031342  0.43289579  0.19586738    -0.92900
O1758       O  0.89040986  0.29979266  0.18798970    -0.93300
O1759       O  0.93232069  0.33490257  0.18155172    -0.92000
C1760       C  0.87809911  0.45314782  0.20296912     1.17000
H1761       H  0.85517862  0.30829710  0.15299374     0.33000
H1762       H  0.93593687  0.38932934  0.13742435     0.43800
H1763       H  0.85709394  0.48697434  0.15097911     0.37300
H1764       H  0.86795969  0.39958779  0.07062613     0.33800
H1765       H  0.93966462  0.26865536  0.14947086     0.25600
H1766       H  0.92930851  0.42467492  0.05074015     0.31500
H1767       H  0.88034428  0.51876354  0.07187086     0.37500
H1768       H  0.89510418  0.26933677  0.18758022     0.31900
H1769       H  0.85117299  0.34466047  0.20032862     0.30800
H1770       H  0.80869414  0.43392647  0.18207281     0.32500
H1771       H  0.82236780  0.50694205  0.12895251     0.31400
H1772       H  0.93701856  0.36538392  0.18143383     0.35400
H1773       H  0.94159980  0.47921603  0.17855781     0.28200
H1774       H  0.83713586  0.26604779  0.07794746     0.32400
H1775       H  0.82317779  0.48324513  0.06814159     0.35300
H1776       H  0.82715552  0.36693058  0.20153511     0.27900
H1777       H  0.93510948  0.52205345  0.16575275     0.40700
H1778       H  0.95315253  0.36213453  0.07308051     0.30800
H1779       H  0.93862199  0.29029946  0.12508495     0.38400
H1780       H  0.80985479  0.46822784  0.11732550     0.30300
H1781       H  0.90438580  0.44293424  0.05281598     0.30300
H1782       H  0.82429417  0.30785390  0.07009511     0.30600
Zr1783     Zr  0.85595524  0.83471083  0.10464396     2.17500
O1784       O  0.82847558  0.79454799  0.08129478    -0.51800
O1785       O  0.86433943  0.76017528  0.11529507    -0.75000
O1786       O  0.86849286  0.82397978  0.06448845    -0.81800
O1787       O  0.80994701  0.86890595  0.14794329    -0.83500
O1788       O  0.90360904  0.85424437  0.06065415    -0.79100
O1789       O  0.81476703  0.83594506  0.11339209    -0.90800
O1790       O  0.89280858  0.75724326  0.14192687    -0.76700
O1791       O  0.89627973  0.83121875  0.11122993    -0.86200
O1792       O  0.86130069  0.83246731  0.14556052    -0.85900
O1793       O  0.87111040  0.89936474  0.08753632    -0.72700
O1794       O  0.83976996  0.89959851  0.11967621    -0.84800
Zr1795     Zr  0.90202184  0.95778716  0.15044522     2.26400
Zr1796     Zr  0.91153545  0.89580783  0.09493310     2.06300
Zr1797     Zr  0.84601879  0.89786707  0.16037760     2.10000
Zr1798     Zr  0.90162655  0.82986896  0.15201570     1.78800
O1799       O  0.81712559  0.95035795  0.17121109    -0.93600
O1800       O  0.93901874  0.80113989  0.14173537    -0.41400
O1801       O  0.88614644  0.89421227  0.16744479    -0.78000
O1802       O  0.91858969  0.89256920  0.13573728    -0.96700
O1803       O  0.89596211  0.96093434  0.10979815    -0.90000
O1804       O  0.86162162  0.96205804  0.14437367    -0.92900
C1805       C  0.87829975  0.73944298  0.12845082     1.00900
C1806       C  0.80229875  0.84889561  0.13028836     1.13800
C1807       C  0.88658963  0.83278181  0.05269717     1.04600
O1808       O  0.94480745  0.85111299  0.08715360    -0.95000
O1809       O  0.94611899  0.93636089  0.10260028    -0.90800
O1810       O  0.94194790  0.96629043  0.13798794    -0.83900
C1811       C  0.95384631  0.95722824  0.11999518     1.11200
O1812       O  0.82705074  0.95730768  0.07305148    -0.97000
Zr1813     Zr  0.85556720  0.96344581  0.10373604     1.88900
O1814       O  0.89289271  0.03244420  0.14138062    -0.73600
O1815       O  0.91749542  0.94307260  0.06196802    -0.52900
O1816       O  0.86664904  0.99910144  0.06803595    -0.97600
O1817       O  0.81874414  0.99299642  0.11564300    -0.54800
O1818       O  0.86519383  0.03585681  0.11391454    -0.74200
C1819       C  0.87927685  0.05336516  0.12798714     0.98200
O1820       O  0.92544640  0.99672648  0.17837290    -0.63000
O1821       O  0.83347995  0.84750975  0.18993092    -0.57800
O1822       O  0.89219758  0.95983089  0.19156913    -0.94500
O1823       O  0.85738528  0.92883791  0.19680008    -0.92900
O1824       O  0.89177485  0.79025223  0.18689536    -0.93300
O1825       O  0.92638979  0.84032155  0.18543517    -0.92000
C1826       C  0.87507796  0.94890379  0.20428756     1.17000
H1827       H  0.85350513  0.80811914  0.15225171     0.33000
H1828       H  0.93476999  0.89018421  0.13908807     0.43800
H1829       H  0.85521566  0.98685074  0.15193192     0.37300
H1830       H  0.86791458  0.90114504  0.07124310     0.33800
H1831       H  0.94039399  0.77434494  0.15081478     0.25600
H1832       H  0.93014586  0.92970409  0.05321786     0.31500
H1833       H  0.88263078  0.00863788  0.07068963     0.37500
H1834       H  0.87553143  0.78178207  0.18492173     0.31900
H1835       H  0.84718798  0.84273259  0.19972806     0.30800
H1836       H  0.80723955  0.93524307  0.18244878     0.32500
H1837       H  0.82210635  0.01055806  0.12942922     0.31400
H1838       H  0.92884629  0.87167913  0.18616893     0.35400
H1839       H  0.93832950  0.97736918  0.18234177     0.28200
H1840       H  0.83696804  0.76953760  0.07525285     0.32400
H1841       H  0.82114954  0.98669155  0.07050303     0.35300
H1842       H  0.82287962  0.86411377  0.19976216     0.27900
H1843       H  0.93251138  0.02074488  0.16975157     0.40700
H1844       H  0.95258039  0.86522637  0.07400968     0.30800
H1845       H  0.93723430  0.79143464  0.12558727     0.38400
H1846       H  0.81000990  0.96817545  0.12164659     0.30300
H1847       H  0.90377812  0.93915202  0.05207851     0.30300
H1848       H  0.82518989  0.81264322  0.06761411     0.30600
Zr1849     Zr  0.15349764  0.10247355  0.10387909     2.17500
O1850       O  0.18259660  0.14189542  0.08232183    -0.51800
O1851       O  0.14568746  0.17824939  0.11326321    -0.75000
O1852       O  0.14294433  0.11178575  0.06313691    -0.81800
O1853       O  0.19815010  0.05828599  0.14688208    -0.83500
O1854       O  0.10711386  0.08493750  0.05783840    -0.79100
O1855       O  0.19462395  0.09391027  0.11282201    -0.90800
O1856       O  0.11733833  0.18132140  0.13976114    -0.76700
O1857       O  0.11315658  0.10880945  0.10955464    -0.86200
O1858       O  0.14752067  0.10507984  0.14463952    -0.85900
O1859       O  0.13699819  0.03927363  0.08634087    -0.72700
O1860       O  0.16725553  0.03599844  0.11937931    -0.84800
Zr1861     Zr  0.10355910  0.98128876  0.14823801     2.26400
Zr1862     Zr  0.09654629  0.04609191  0.09262706     2.06300
Zr1863     Zr  0.16057740  0.03795105  0.15981640     2.10000
Zr1864     Zr  0.10719338  0.10960453  0.15023380     1.78800
O1865       O  0.18925178  0.98728593  0.17371723    -0.93600
O1866       O  0.07103846  0.14418274  0.14016082    -0.41400
O1867       O  0.12033338  0.04332017  0.16581353    -0.78000
O1868       O  0.08925117  0.04863146  0.13341387    -0.96700
O1869       O  0.11019437  0.97908796  0.10764458    -0.90000
O1870       O  0.14401473  0.97499862  0.14326542    -0.92900
C1871       C  0.13163270  0.19915006  0.12617295     1.00900
C1872       C  0.20665538  0.07748922  0.12933334     1.13800
C1873       C  0.12523901  0.10397884  0.05052139     1.04600
O1874       O  0.06559581  0.09497193  0.08237780    -0.95000
O1875       O  0.05966282  0.01349223  0.10042746    -0.90800
O1876       O  0.06359954  0.97838591  0.13459559    -0.83900
C1877       C  0.05156320  0.99151798  0.11727013     1.11200
O1878       O  0.18038094  0.97817927  0.07333033    -0.97000
Zr1879     Zr  0.15065547  0.97388469  0.10273357     1.88900
O1880       O  0.11134285  0.90598844  0.13888676    -0.73600
O1881       O  0.08866431  0.99738243  0.06085579    -0.52900
O1882       O  0.13866054  0.94095967  0.06659361    -0.97600
O1883       O  0.18665549  0.94038570  0.11455053    -0.54800
O1884       O  0.13981812  0.90231686  0.11243641    -0.74200
C1885       C  0.12522005  0.88504850  0.12590445     0.98200
O1886       O  0.07826166  0.94302435  0.17470080    -0.63000
O1887       O  0.17145129  0.09122332  0.18855287    -0.57800
O1888       O  0.11254026  0.97718067  0.18991315    -0.94500
O1889       O  0.14790424  0.00575652  0.19541860    -0.92900
O1890       O  0.12086870  0.13821366  0.18684351    -0.93300
O1891       O  0.07949910  0.10777292  0.18155715    -0.92000
C1892       C  0.12991008  0.98667842  0.20281236     1.17000
H1893       H  0.15555693  0.12894039  0.15150056     0.33000
H1894       H  0.07319741  0.05295510  0.13664026     0.43800
H1895       H  0.14989639  0.94970833  0.15091788     0.37300
H1896       H  0.14058371  0.03647906  0.07020644     0.33800
H1897       H  0.07012558  0.16947105  0.15037440     0.25600
H1898       H  0.07765375  0.01306349  0.05090191     0.31500
H1899       H  0.12362636  0.92765551  0.06997639     0.37500
H1900       H  0.12127761  0.16966482  0.18468653     0.31900
H1901       H  0.17215888  0.07541483  0.20335838     0.30800
H1902       H  0.19799740  0.00324561  0.18557353     0.32500
H1903       H  0.18332899  0.92597862  0.12939630     0.31400
H1904       H  0.07338709  0.07818562  0.18137065     0.35400
H1905       H  0.06560015  0.96308644  0.17821472     0.28200
H1906       H  0.17447985  0.16628154  0.07500317     0.32400
H1907       H  0.18379682  0.94817584  0.06904136     0.35300
H1908       H  0.18762566  0.09843007  0.18514626     0.27900
H1909       H  0.07110356  0.91988032  0.16551801     0.40700
H1910       H  0.07223620  0.12394598  0.08422296     0.30800
H1911       H  0.07358163  0.15639435  0.12459971     0.38400
H1912       H  0.19681861  0.96457025  0.11875244     0.30300
H1913       H  0.10303741  0.99678944  0.05183062     0.30300
H1914       H  0.18697701  0.12302893  0.06935972     0.30600
Zr1915     Zr  0.15012420  0.60662131  0.10449350     2.17500
O1916       O  0.17739711  0.65208570  0.08396495    -0.51800
O1917       O  0.13973149  0.68029911  0.11408602    -0.75000
O1918       O  0.14016693  0.61493414  0.06376870    -0.81800
O1919       O  0.19503800  0.57519479  0.15002433    -0.83500
O1920       O  0.10435449  0.58808304  0.05866231    -0.79100
O1921       O  0.19110456  0.60235165  0.11381569    -0.90800
O1922       O  0.10922985  0.68150926  0.13816880    -0.76700
O1923       O  0.10955087  0.60808950  0.10910306    -0.86200
O1924       O  0.14335121  0.60883765  0.14507611    -0.85900
O1925       O  0.13643632  0.54201462  0.08629317    -0.72700
O1926       O  0.16648545  0.54255763  0.12018765    -0.84800
Zr1927     Zr  0.10488103  0.47974854  0.14755914     2.26400
Zr1928     Zr  0.09586615  0.54328141  0.09190987     2.06300
Zr1929     Zr  0.15892180  0.54386262  0.16049274     2.10000
Zr1930     Zr  0.10283854  0.60862256  0.14961937     1.78800
O1931       O  0.19000019  0.49622998  0.17204876    -0.93600
O1932       O  0.06545145  0.63754827  0.13891018    -0.41400
O1933       O  0.11843061  0.54421829  0.16572785    -0.78000
O1934       O  0.08808021  0.54516623  0.13254233    -0.96700
O1935       O  0.11188136  0.47823467  0.10706110    -0.90000
O1936       O  0.14547083  0.47904423  0.14325617    -0.92900
C1937       C  0.12419235  0.70002755  0.12559098     1.00900
C1938       C  0.20316999  0.59182670  0.13158435     1.13800
C1939       C  0.12242997  0.60715084  0.05126663     1.04600
O1940       O  0.06149961  0.58214881  0.08028671    -0.95000
O1941       O  0.06078836  0.50446647  0.09950631    -0.90800
O1942       O  0.06492517  0.47345676  0.13483148    -0.83900
C1943       C  0.05297303  0.48406582  0.11702473     1.11200
O1944       O  0.18089439  0.49151890  0.07270124    -0.97000
Zr1945     Zr  0.15253764  0.47875955  0.10275756     1.88900
O1946       O  0.11650317  0.40578789  0.13816932    -0.73600
O1947       O  0.09332286  0.49537858  0.05893005    -0.52900
O1948       O  0.14194038  0.44451584  0.06654558    -0.97600
O1949       O  0.19021122  0.45122305  0.11354942    -0.54800
O1950       O  0.14542476  0.40509844  0.11221424    -0.74200
C1951       C  0.13127570  0.38606955  0.12552426     0.98200
O1952       O  0.08107303  0.43563288  0.17281267    -0.63000
O1953       O  0.16703502  0.59301074  0.19211292    -0.57800
O1954       O  0.11337105  0.47598381  0.18902633    -0.94500
O1955       O  0.14775929  0.50783708  0.19541188    -0.92900
O1956       O  0.11455064  0.64610995  0.18449014    -0.93300
O1957       O  0.07509861  0.59973051  0.18057045    -0.92000
C1958       C  0.13021282  0.48670590  0.20222976     1.17000
H1959       H  0.15036258  0.63371436  0.15204343     0.33000
H1960       H  0.07188701  0.54775352  0.13555151     0.43800
H1961       H  0.15226408  0.45457516  0.15089965     0.37300
H1962       H  0.14023677  0.54007916  0.07016065     0.33800
H1963       H  0.06354063  0.66322812  0.14869252     0.25600
H1964       H  0.07956473  0.50519284  0.05036612     0.31500
H1965       H  0.12705514  0.43041197  0.06963692     0.37500
H1966       H  0.12121433  0.62354599  0.19450189     0.31900
H1967       H  0.17838606  0.57779983  0.20188742     0.30800
H1968       H  0.19532726  0.50736778  0.18711462     0.32500
H1969       H  0.18754838  0.43355203  0.12748735     0.31400
H1970       H  0.07119237  0.56886545  0.18035005     0.35400
H1971       H  0.06786450  0.45372036  0.17725886     0.28200
H1972       H  0.16819079  0.67524834  0.07679117     0.32400
H1973       H  0.18667430  0.46285933  0.06834715     0.35300
H1974       H  0.17578685  0.61690345  0.18513947     0.27900
H1975       H  0.07451475  0.41281335  0.16296252     0.40700
H1976       H  0.06456566  0.61223169  0.08465307     0.30800
H1977       H  0.06754768  0.64917085  0.12314892     0.38400
H1978       H  0.19873015  0.47652776  0.11926205     0.30300
H1979       H  0.10635057  0.50344039  0.04890310     0.30300
H1980       H  0.18297040  0.63473829  0.07085962     0.30600
Zr1981     Zr  0.14995792  0.32764839  0.39863064     2.17500
O1982       O  0.17745147  0.28448304  0.42045164    -0.51800
O1983       O  0.14036419  0.25346054  0.38892922    -0.75000
O1984       O  0.13899371  0.31936535  0.43923641    -0.81800
O1985       O  0.19551654  0.36091799  0.35475769    -0.83500
O1986       O  0.10434117  0.35102532  0.44412588    -0.79100
O1987       O  0.19097876  0.32951138  0.38987165    -0.90800
O1988       O  0.11217010  0.25149306  0.36196132    -0.76700
O1989       O  0.10950139  0.32559244  0.39298104    -0.86200
O1990       O  0.14361689  0.32467659  0.35789322    -0.85900
O1991       O  0.13611069  0.39290996  0.41591419    -0.72700
O1992       O  0.16641255  0.39158645  0.38267723    -0.84800
Zr1993     Zr  0.10493519  0.45301647  0.35367627     2.26400
Zr1994     Zr  0.09551809  0.39073582  0.40934254     2.06300
Zr1995     Zr  0.15923319  0.38920389  0.34221416     2.10000
Zr1996     Zr  0.10318867  0.32440465  0.35233913     1.78800
O1997       O  0.18998484  0.43435975  0.32754564    -0.93600
O1998       O  0.06680053  0.29209258  0.36342542    -0.41400
O1999       O  0.11884614  0.38845206  0.33618611    -0.78000
O2000       O  0.08784463  0.38823315  0.36868553    -0.96700
O2001       O  0.11173855  0.45538997  0.39414965    -0.90000
O2002       O  0.14553050  0.45449650  0.35863869    -0.92900
C2003       C  0.12644076  0.23326795  0.37557355     1.00900
C2004       C  0.20331780  0.34204196  0.37278928     1.13800
C2005       C  0.12165855  0.32979518  0.45167535     1.04600
O2006       O  0.06345456  0.34331910  0.41778009    -0.95000
O2007       O  0.06093163  0.43113634  0.40196516    -0.90800
O2008       O  0.06541628  0.46248401  0.36681971    -0.83900
C2009       C  0.05346888  0.45279428  0.38469303     1.11200
O2010       O  0.18219263  0.44609333  0.42821200    -0.97000
Zr2011     Zr  0.15226657  0.45595264  0.39919007     1.88900
O2012       O  0.11557134  0.52719635  0.36261970    -0.73600
O2013       O  0.08832157  0.43844330  0.44165751    -0.52900
O2014       O  0.14104864  0.48964473  0.43528508    -0.97600
O2015       O  0.18921047  0.48619642  0.38805238    -0.54800
O2016       O  0.14351087  0.52905538  0.38976846    -0.74200
C2017       C  0.12954640  0.54746926  0.37590391     0.98200
O2018       O  0.08114609  0.49318076  0.32643999    -0.63000
O2019       O  0.16669114  0.33526879  0.31282650    -0.57800
O2020       O  0.11381984  0.45662974  0.31251013    -0.94500
O2021       O  0.14840778  0.42505527  0.30695038    -0.92900
O2022       O  0.11483718  0.29024239  0.31654362    -0.93300
O2023       O  0.07414305  0.33256205  0.32234109    -0.92000
C2024       C  0.13090369  0.44603794  0.29977518     1.17000
H2025       H  0.15082041  0.29979219  0.35119465     0.33000
H2026       H  0.07160648  0.38644303  0.36556013     0.43800
H2027       H  0.15233506  0.47886203  0.35094778     0.37300
H2028       H  0.13979566  0.39519626  0.43207376     0.33800
H2029       H  0.06484942  0.26746507  0.35287866     0.25600
H2030       H  0.07731837  0.42272364  0.45152258     0.31500
H2031       H  0.12623727  0.50385772  0.43186842     0.37500
H2032       H  0.11866427  0.31427025  0.30605555     0.31900
H2033       H  0.17173183  0.35166747  0.29911142     0.30800
H2034       H  0.19677105  0.41774759  0.31475234     0.32500
H2035       H  0.18565097  0.51328923  0.37988267     0.31400
H2036       H  0.07358416  0.36376382  0.31926283     0.35400
H2037       H  0.06801584  0.47427932  0.32271756     0.28200
H2038       H  0.16845186  0.26103051  0.42755651     0.32400
H2039       H  0.18602143  0.47523789  0.43370610     0.35300
H2040       H  0.18064682  0.32000914  0.31809979     0.27900
H2041       H  0.07449821  0.51725333  0.33525859     0.40700
H2042       H  0.05364961  0.34447081  0.40381557     0.30800
H2043       H  0.06979408  0.27886397  0.37868628     0.38400
H2044       H  0.19489823  0.46687800  0.37583801     0.30300
H2045       H  0.10281034  0.43850010  0.45061218     0.30300
H2046       H  0.18242854  0.30259499  0.43353916     0.30600
Zr2047     Zr  0.15147113  0.82984484  0.40054611     2.17500
O2048       O  0.17912152  0.78671161  0.42221263    -0.51800
O2049       O  0.14367054  0.75479741  0.39043863    -0.75000
O2050       O  0.14099473  0.82151817  0.44136317    -0.81800
O2051       O  0.19606902  0.86107324  0.35496166    -0.83500
O2052       O  0.10545601  0.84971829  0.44609429    -0.79100
O2053       O  0.19241936  0.83597302  0.39166006    -0.90800
O2054       O  0.11551651  0.75184887  0.36354240    -0.76700
O2055       O  0.11100440  0.82528334  0.39517211    -0.86200
O2056       O  0.14500097  0.82708912  0.35980540    -0.85900
O2057       O  0.13630850  0.89425156  0.41786002    -0.72700
O2058       O  0.16692676  0.89470633  0.38458757    -0.84800
Zr2059     Zr  0.10372441  0.95222789  0.35557105     2.26400
Zr2060     Zr  0.09572999  0.88939605  0.41149465     2.06300
Zr2061     Zr  0.15965917  0.89254092  0.34408681     2.10000
Zr2062     Zr  0.10451929  0.82396578  0.35458697     1.78800
O2063       O  0.18899050  0.94507268  0.33442638    -0.93600
O2064       O  0.06980861  0.78729414  0.36717440    -0.41400
O2065       O  0.11920501  0.88865575  0.33836289    -0.78000
O2066       O  0.08789616  0.88660565  0.37086989    -0.96700
O2067       O  0.11073092  0.95476878  0.39600538    -0.90000
O2068       O  0.14427700  0.95660237  0.36036196    -0.92900
C2069       C  0.13004217  0.73399307  0.37702089     1.00900
C2070       C  0.20435659  0.84547667  0.37372579     1.13800
C2071       C  0.12327697  0.83011219  0.45370385     1.04600
O2072       O  0.06390321  0.84098987  0.41912470    -0.95000
O2073       O  0.06047652  0.92798654  0.40461404    -0.90800
O2074       O  0.06424290  0.95999141  0.36957922    -0.83900
C2075       C  0.05254556  0.94965975  0.38757060     1.11200
O2076       O  0.17909237  0.95206143  0.43212836    -0.97000
Zr2077     Zr  0.15121669  0.95813893  0.40085842     1.88900
O2078       O  0.11262136  0.02701909  0.36507626    -0.73600
O2079       O  0.08704969  0.93545935  0.44414542    -0.52900
O2080       O  0.13821501  0.99753176  0.43459976    -0.97600
O2081       O  0.18816307  0.98797762  0.38949260    -0.54800
O2082       O  0.14226032  0.03033719  0.39042107    -0.74200
C2083       C  0.12701466  0.04783081  0.37767617     0.98200
O2084       O  0.07855999  0.98791316  0.32781119    -0.63000
O2085       O  0.17046844  0.84413809  0.31309818    -0.57800
O2086       O  0.11282738  0.95758871  0.31429449    -0.94500
O2087       O  0.14733554  0.92587419  0.30825895    -0.92900
O2088       O  0.11441446  0.79336833  0.31733198    -0.93300
O2089       O  0.07390416  0.83106112  0.32615647    -0.92000
C2090       C  0.12963849  0.94670496  0.30119654     1.17000
H2091       H  0.15267053  0.80285335  0.35293950     0.33000
H2092       H  0.07167723  0.88392674  0.36783732     0.43800
H2093       H  0.15042098  0.98150942  0.35260820     0.37300
H2094       H  0.13997362  0.89698635  0.43401733     0.33800
H2095       H  0.06740511  0.76421498  0.35574793     0.25600
H2096       H  0.07643722  0.91844562  0.45383425     0.31500
H2097       H  0.12189236  0.00431148  0.43153534     0.37500
H2098       H  0.12741692  0.77379177  0.32046954     0.31900
H2099       H  0.15588580  0.83742753  0.30509256     0.30800
H2100       H  0.19783519  0.93171922  0.32181066     0.32500
H2101       H  0.18515295  0.00359984  0.37490710     0.31400
H2102       H  0.07673674  0.85911245  0.31866501     0.35400
H2103       H  0.06521643  0.96866088  0.32569832     0.28200
H2104       H  0.17019677  0.76311783  0.42928465     0.32400
H2105       H  0.18345727  0.98187208  0.43593747     0.35300
H2106       H  0.17904848  0.86219613  0.30202215     0.27900
H2107       H  0.07244446  0.01336083  0.33586234     0.40700
H2108       H  0.05581500  0.83838109  0.40415337     0.30800
H2109       H  0.07424479  0.77203478  0.38151503     0.38400
H2110       H  0.19744877  0.96292321  0.38484760     0.30300
H2111       H  0.10147088  0.93671353  0.45317654     0.30300
H2112       H  0.18407352  0.80472970  0.43534710     0.30600
C2113       C  0.13060178  0.68625249  0.37674592    -0.05900
C2114       C  0.11350481  0.66396481  0.36439189    -0.33300
C2115       C  0.11313583  0.61922380  0.36351117     0.35900
C2116       C  0.12982973  0.59521186  0.37551819    -0.06300
C2117       C  0.14706217  0.61744534  0.38774330    -0.33200
C2118       C  0.14767244  0.66230863  0.38826096     0.35800
H2119       H  0.10011109  0.68119916  0.35528899     0.16200
O2120       O  0.09595350  0.59953141  0.35129347    -0.60700
H2121       H  0.16033085  0.60006509  0.39695243     0.16200
O2122       O  0.16502943  0.68215561  0.40015014    -0.60800
H2123       H  0.17772137  0.68510218  0.38891200     0.43200
H2124       H  0.10150784  0.59856371  0.33515254     0.43200
C2125       C  0.12666718  0.18578629  0.37588925    -0.05900
C2126       C  0.13447555  0.16398866  0.39559753    -0.33300
C2127       C  0.13424038  0.11924490  0.39658257     0.35900
C2128       C  0.12635647  0.09521823  0.37748497    -0.06300
C2129       C  0.11847117  0.11696209  0.35782911    -0.33200
C2130       C  0.11871810  0.16171405  0.35683446     0.35800
H2131       H  0.14044250  0.18167446  0.41051017     0.16200
O2132       O  0.14154074  0.09944403  0.41645481    -0.60700
H2133       H  0.11254194  0.09921352  0.34292546     0.16200
O2134       O  0.11142576  0.18145948  0.33695577    -0.60800
H2135       H  0.12542053  0.18499861  0.32746666     0.43200
H2136       H  0.12744209  0.09459926  0.42561946     0.43200
C2137       C  0.12973354  0.47500924  0.22707987    -0.05900
C2138       C  0.15049593  0.47471249  0.23951798    -0.33300
C2139       C  0.15097241  0.46623765  0.26313867     0.35900
C2140       C  0.13043432  0.45763252  0.27502838    -0.06300
C2141       C  0.10960323  0.45816321  0.26278111    -0.33200
C2142       C  0.10915141  0.46628454  0.23894880     0.35800
H2143       H  0.16659991  0.48123894  0.23092295     0.16200
O2144       O  0.17169375  0.46682325  0.27444092    -0.60700
H2145       H  0.09365208  0.45145501  0.27161294     0.16200
O2146       O  0.08844958  0.46700708  0.22766597    -0.60800
H2147       H  0.08483450  0.43656608  0.22443229     0.43200
H2148       H  0.17254440  0.49533848  0.28188609     0.43200
C2149       C  0.12480523  0.83772981  0.12624785    -0.05900
C2150       C  0.10408678  0.81566585  0.12931141    -0.33300
C2151       C  0.10344275  0.77084792  0.12835859     0.35900
C2152       C  0.12386696  0.74734765  0.12489398    -0.06300
C2153       C  0.14448422  0.76951711  0.12165764    -0.33200
C2154       C  0.14510299  0.81414801  0.12236058     0.35800
H2155       H  0.08827301  0.83321647  0.13186163     0.16200
O2156       O  0.08270856  0.75046166  0.13045748    -0.60700
H2157       H  0.16035927  0.75217891  0.11906308     0.16200
O2158       O  0.16578703  0.83437607  0.11945572    -0.60800
H2159       H  0.17243374  0.83666813  0.13517169     0.43200
H2160       H  0.07735122  0.74572548  0.11440655     0.43200
C2161       C  0.13156255  0.24700395  0.12576416    -0.05900
C2162       C  0.15045731  0.26976229  0.11715806    -0.33300
C2163       C  0.15081010  0.31476419  0.11723197     0.35900
C2164       C  0.13193890  0.33824750  0.12598022    -0.06300
C2165       C  0.11312001  0.31543369  0.13461529    -0.33200
C2166       C  0.11275855  0.27060153  0.13457231     0.35800
H2167       H  0.16521182  0.25267383  0.11059254     0.16200
O2168       O  0.17006688  0.33529190  0.10935547    -0.60700
H2169       H  0.09830571  0.33237467  0.14115915     0.16200
O2170       O  0.09343038  0.25033893  0.14247862    -0.60800
H2171       H  0.09495613  0.25013045  0.15952485     0.43200
H2172       H  0.16838555  0.33606110  0.09233019     0.43200
C2173       C  0.12948916  0.97602209  0.22797063    -0.05900
C2174       C  0.10860633  0.97107663  0.23979235    -0.33300
C2175       C  0.10820826  0.96293754  0.26372219     0.35900
C2176       C  0.12892726  0.95830219  0.27620906    -0.06300
C2177       C  0.14970039  0.96312877  0.26432849    -0.33200
C2178       C  0.15015165  0.97239635  0.24072249     0.35800
H2179       H  0.09250702  0.97413917  0.23055068     0.16200
O2180       O  0.08748426  0.95798562  0.27449329    -0.60700
H2181       H  0.16588076  0.95995563  0.27343182     0.16200
O2182       O  0.17108038  0.97649149  0.23019672    -0.60800
H2183       H  0.17607243  0.00627013  0.23340875     0.43200
H2184       H  0.08245881  0.98745113  0.27832554     0.43200
C2185       C  0.97846078  0.96923339  0.11957695    -0.05900
C2186       C  0.98941458  0.97608813  0.09832571    -0.33300
C2187       C  0.01313368  0.98303147  0.09718335     0.35900
C2188       C  0.02647961  0.98308372  0.11756413    -0.06300
C2189       C  0.01543037  0.97681845  0.13882116    -0.33200
C2190       C  0.99174404  0.96992715  0.13995088     0.35800
H2191       H  0.97958416  0.97551538  0.08243019     0.16200
O2192       O  0.02306703  0.98917434  0.07601437    -0.60700
H2193       H  0.02518219  0.97727346  0.15476002     0.16200
O2194       O  0.98194262  0.96257624  0.16106196    -0.60800
H2195       H  0.98243355  0.93105570  0.16319655     0.43200
H2196       H  0.02504892  0.96005553  0.06953515     0.43200
C2197       C  0.87926892  0.60094530  0.12768692    -0.05900
C2198       C  0.85979828  0.62348622  0.11984515    -0.33300
C2199       C  0.85910220  0.66833289  0.12002711     0.35900
C2200       C  0.87811737  0.69182332  0.12812149    -0.06300
C2201       C  0.89748046  0.66927014  0.13618859    -0.33200
C2202       C  0.89815811  0.62446049  0.13607704     0.35800
H2203       H  0.84486064  0.60631200  0.11365492     0.16200
O2204       O  0.83941972  0.68868220  0.11301617    -0.60700
H2205       H  0.91243227  0.68641407  0.14237174     0.16200
O2206       O  0.91777008  0.60419222  0.14335806    -0.60800
H2207       H  0.91661540  0.60302016  0.16041114     0.43200
H2208       H  0.84060849  0.69077890  0.09599278     0.43200
C2209       C  0.87939486  0.10088508  0.12876066    -0.05900
C2210       C  0.86013757  0.12357570  0.12058573    -0.33300
C2211       C  0.85959279  0.16835313  0.12067376     0.35900
C2212       C  0.87869970  0.19168639  0.12870101    -0.06300
C2213       C  0.89788372  0.16896769  0.13710955    -0.33200
C2214       C  0.89835848  0.12415965  0.13718023     0.35800
H2215       H  0.84519501  0.10654441  0.11429191     0.16200
O2216       O  0.84015371  0.18877048  0.11306030    -0.60700
H2217       H  0.91282745  0.18595340  0.14343727     0.16200
O2218       O  0.91758719  0.10365619  0.14528092    -0.60800
H2219       H  0.92736492  0.09921864  0.13153469     0.43200
H2220       H  0.83092655  0.19389348  0.12712227     0.43200
C2221       C  0.98013640  0.46401656  0.11662419    -0.05900
C2222       C  0.99137084  0.47702855  0.13691577    -0.33300
C2223       C  0.01513816  0.48290392  0.13735130     0.35900
C2224       C  0.02817055  0.47543087  0.11733922    -0.06300
C2225       C  0.01698299  0.46379432  0.09690091    -0.33200
C2226       C  0.99324058  0.45807393  0.09637185     0.35800
H2227       H  0.98180426  0.48206387  0.15265662     0.16200
O2228       O  0.02537352  0.49683777  0.15731053    -0.60700
H2229       H  0.02672369  0.45902840  0.08123326     0.16200
O2230       O  0.98315891  0.44631777  0.07593612    -0.60800
H2231       H  0.97758440  0.47341845  0.06892954     0.43200
H2232       H  0.02605033  0.52847715  0.15582771     0.43200
C2233       C  0.98158337  0.48282653  0.38668617    -0.05900
C2234       C  0.99190157  0.46928532  0.36605058    -0.33300
C2235       C  0.01539566  0.46061280  0.36505409     0.35900
C2236       C  0.02907903  0.46502521  0.38494133    -0.06300
C2237       C  0.01885840  0.47775946  0.40566728    -0.33200
C2238       C  0.99537790  0.48674514  0.40667381     0.35800
H2239       H  0.98181593  0.46567634  0.35045350     0.16200
O2240       O  0.02456826  0.44546856  0.34489881    -0.60700
H2241       H  0.02913448  0.48065935  0.42119806     0.16200
O2242       O  0.98619016  0.49917169  0.42733598    -0.60800
H2243       H  0.98087095  0.47230880  0.43476412     0.43200
H2244       H  0.02562645  0.47074294  0.33455554     0.43200
C2245       C  0.88062671  0.48562273  0.27561892    -0.05900
C2246       C  0.85991786  0.47377457  0.26506161    -0.33300
C2247       C  0.85887458  0.46339043  0.24167088     0.35900
C2248       C  0.87886403  0.46501641  0.22791339    -0.06300
C2249       C  0.89965237  0.47738844  0.23844290    -0.33200
C2250       C  0.90066326  0.48738815  0.26209798     0.35800
H2251       H  0.84425947  0.47242880  0.27505542     0.16200
O2252       O  0.83792072  0.45312670  0.23236500    -0.60700
H2253       H  0.91523347  0.47920684  0.22837205     0.16200
O2254       O  0.92100745  0.50098732  0.27150775    -0.60800
H2255       H  0.93043083  0.47475946  0.27335940     0.43200
H2256       H  0.83533958  0.42268658  0.23656732     0.43200
C2257       C  0.87812313  0.75537677  0.37865397    -0.05900
C2258       C  0.89067922  0.77788691  0.36176550    -0.33300
C2259       C  0.89146352  0.82257710  0.36140994     0.35900
C2260       C  0.87947242  0.84623394  0.37812771    -0.06300
C2261       C  0.86699021  0.82381865  0.39510230    -0.33200
C2262       C  0.86635880  0.77898428  0.39556635     0.35800
H2263       H  0.90002018  0.76086628  0.34853521     0.16200
O2264       O  0.90406786  0.84253864  0.34457966    -0.60700
H2265       H  0.85772108  0.84102557  0.40831430     0.16200
O2266       O  0.85416044  0.75880926  0.41262413    -0.60800
H2267       H  0.86415373  0.75981758  0.42649472     0.43200
H2268       H  0.89317720  0.84745949  0.33166236     0.43200
C2269       C  0.88019516  0.34614895  0.37290496    -0.05900
C2270       C  0.86126814  0.32412587  0.38234665    -0.33300
C2271       C  0.86030318  0.27932709  0.38268805     0.35900
C2272       C  0.87845825  0.25521164  0.37339400    -0.06300
C2273       C  0.89704348  0.27725033  0.36333628    -0.33200
C2274       C  0.89811881  0.32204180  0.36321404     0.35800
H2275       H  0.84707279  0.34165573  0.38975815     0.16200
O2276       O  0.84161858  0.25969488  0.39239707    -0.60700
H2277       H  0.91130252  0.25973526  0.35604729     0.16200
O2278       O  0.91707680  0.34166690  0.35406617    -0.60800
H2279       H  0.92836602  0.34290074  0.36688843     0.43200
H2280       H  0.83036938  0.25660529  0.37963988     0.43200
C2281       C  0.02787255  0.96082136  0.38797876    -0.05900
C2282       C  0.01562086  0.96203372  0.36714867    -0.33300
C2283       C  0.99197694  0.96940314  0.36679910     0.35900
C2284       C  0.98000035  0.97664949  0.38756614    -0.06300
C2285       C  0.99231378  0.97548822  0.40848822    -0.33200
C2286       C  0.01597999  0.96748401  0.40882144     0.35800
H2287       H  0.02434094  0.95655702  0.35095116     0.16200
O2288       O  0.98101183  0.97143536  0.34587101    -0.60700
H2289       H  0.98361048  0.98110473  0.42467725     0.16200
O2290       O  0.02730762  0.96674454  0.42960254    -0.60800
H2291       H  0.03414098  0.99567584  0.43123022     0.43200
H2292       H  0.97922553  0.94123207  0.34092612     0.43200
C2293       C  0.87762042  0.98023261  0.27685597    -0.05900
C2294       C  0.85650296  0.97461952  0.26549800    -0.33300
C2295       C  0.85545538  0.96379452  0.24216037     0.35900
C2296       C  0.87581510  0.95944869  0.22927022    -0.06300
C2297       C  0.89699854  0.96487081  0.24059130    -0.33200
C2298       C  0.89802477  0.97459729  0.26421472     0.35800
H2299       H  0.84054343  0.97843636  0.27478697     0.16200
O2300       O  0.83432007  0.95916967  0.23198317    -0.60700
H2301       H  0.91287494  0.96127367  0.23114645     0.16200
O2302       O  0.91903290  0.98022396  0.27446099    -0.60800
H2303       H  0.92425826  0.95099126  0.27867359     0.43200
H2304       H  0.82940838  0.92956483  0.23579800     0.43200
C2305       C  0.72971862  0.58836017  0.37502914    -0.05900
C2306       C  0.74195920  0.60037393  0.39488582    -0.33300
C2307       C  0.76604481  0.60123325  0.39487155     0.35900
C2308       C  0.77819840  0.58997772  0.37471962    -0.06300
C2309       C  0.76565650  0.57657060  0.35522810    -0.33200
C2310       C  0.74178680  0.57582773  0.35526543     0.35800
H2311       H  0.73283760  0.61051828  0.41017294     0.16200
O2312       O  0.77736539  0.61371858  0.41449560    -0.60700
H2313       H  0.77428432  0.56675807  0.33959977     0.16200
O2314       O  0.73031615  0.56199450  0.33595055    -0.60800
H2315       H  0.73146456  0.58584260  0.32466659     0.43200
H2316       H  0.78004992  0.58692257  0.42333382     0.43200
C2317       C  0.63130448  0.84686807  0.37620167    -0.05900
C2318       C  0.61488618  0.86885470  0.36298818    -0.33300
C2319       C  0.61428910  0.91358569  0.36241280     0.35900
C2320       C  0.63006188  0.93787475  0.37571097    -0.06300
C2321       C  0.64676052  0.91592043  0.38859963    -0.33200
C2322       C  0.64757800  0.87108795  0.38886615     0.35800
H2323       H  0.60228596  0.85139035  0.35296032     0.16200
O2324       O  0.59786395  0.93294173  0.34896332    -0.60700
H2325       H  0.65933808  0.93348417  0.39860069     0.16200
O2326       O  0.66470552  0.85152664  0.40128975    -0.60800
H2327       H  0.65883894  0.84966877  0.41729547     0.43200
H2328       H  0.60463247  0.93456809  0.33331115     0.43200
C2329       C  0.62624165  0.34709867  0.37465593    -0.05900
C2330       C  0.64568949  0.36936749  0.38265914    -0.33300
C2331       C  0.64609876  0.41409162  0.38351182     0.35900
C2332       C  0.62685986  0.43778026  0.37612577    -0.06300
C2333       C  0.60743415  0.41553820  0.36798263    -0.33200
C2334       C  0.60703549  0.37072626  0.36714333     0.35800
H2335       H  0.66083056  0.35205407  0.38826132     0.16200
O2336       O  0.66573755  0.43419893  0.39080192    -0.60700
H2337       H  0.59231906  0.43290019  0.36235850     0.16200
O2338       O  0.58744202  0.35047830  0.35985538    -0.60800
H2339       H  0.58826911  0.35068093  0.34277307     0.43200
H2340       H  0.66531331  0.43265103  0.40788343     0.43200
C2341       C  0.77847178  0.09840879  0.37388406    -0.05900
C2342       C  0.76655220  0.09047637  0.39451612    -0.33300
C2343       C  0.74240951  0.08969248  0.39488846     0.35900
C2344       C  0.72979827  0.09691825  0.37436310    -0.06300
C2345       C  0.74196769  0.10513684  0.35389368    -0.33200
C2346       C  0.76584029  0.10612972  0.35355460     0.35800
H2347       H  0.77596317  0.08393911  0.41028557     0.16200
O2348       O  0.73146767  0.08171268  0.41534798    -0.60700
H2349       H  0.73298576  0.11107366  0.33780863     0.16200
O2350       O  0.77667209  0.11460409  0.33306800    -0.60800
H2351       H  0.77843311  0.14618635  0.33256503     0.43200
H2352       H  0.72888984  0.11028524  0.42229377     0.43200
C2353       C  0.72879347  0.84173712  0.12932857    -0.05900
C2354       C  0.74124716  0.83510418  0.14984633    -0.33300
C2355       C  0.76509119  0.83568142  0.15006811     0.35900
C2356       C  0.77726407  0.84252864  0.12947280    -0.06300
C2357       C  0.76506508  0.84824205  0.10876016    -0.33200
C2358       C  0.74096983  0.84836571  0.10859400     0.35800
H2359       H  0.73252272  0.82959745  0.16605605     0.16200
O2360       O  0.77639728  0.82868838  0.17055299    -0.60700
H2361       H  0.77420002  0.85409159  0.09281731     0.16200
O2362       O  0.72962774  0.85413128  0.08806119    -0.60800
H2363       H  0.72902062  0.88560123  0.08574729     0.43200
H2364       H  0.77555931  0.85626017  0.17896709     0.43200
C2365       C  0.62932614  0.72447365  0.22718468    -0.05900
C2366       C  0.65018433  0.71500333  0.23819238    -0.33300
C2367       C  0.65114412  0.70600879  0.26178216     0.35900
C2368       C  0.63094874  0.70669576  0.27520163    -0.06300
C2369       C  0.60998197  0.71621245  0.26419328    -0.33200
C2370       C  0.60906097  0.72499402  0.24041343     0.35800
H2371       H  0.66601309  0.71475124  0.22845294     0.16200
O2372       O  0.67217080  0.69825852  0.27164630    -0.60700
H2373       H  0.59421361  0.71674930  0.27400902     0.16200
O2374       O  0.58835875  0.73501481  0.23046868    -0.60800
H2375       H  0.58797336  0.76675609  0.22978957     0.43200
H2376       H  0.67554726  0.66778235  0.26827326     0.43200
C2377       C  0.62699518  0.50094028  0.12804683    -0.05900
C2378       C  0.63092099  0.52243546  0.10716512    -0.33300
C2379       C  0.62969408  0.56714432  0.10589385     0.35900
C2380       C  0.62471467  0.59135947  0.12581012    -0.06300
C2381       C  0.62058355  0.56984361  0.14665386    -0.33200
C2382       C  0.62180329  0.52514831  0.14793145     0.35800
H2383       H  0.63458183  0.50448625  0.09164430     0.16200
O2384       O  0.63326925  0.58678523  0.08501573    -0.60700
H2385       H  0.61697212  0.58778022  0.16219247     0.16200
O2386       O  0.61823086  0.50559110  0.16883833    -0.60800
H2387       H  0.63377192  0.50003339  0.17518289     0.43200
H2388       H  0.61785666  0.58908891  0.07782631     0.43200
C2389       C  0.62485865  0.09151226  0.12505521    -0.05900
C2390       C  0.64123819  0.06883608  0.11209582    -0.33300
C2391       C  0.64189784  0.02401689  0.11208610     0.35900
C2392       C  0.62578272  0.00036951  0.12499427    -0.06300
C2393       C  0.60926163  0.02305205  0.13780371    -0.33200
C2394       C  0.60867965  0.06789291  0.13790970     0.35800
H2395       H  0.65393810  0.08582807  0.10200426     0.16200
O2396       O  0.65841675  0.00391629  0.09929705    -0.60700
H2397       H  0.59661582  0.00606178  0.14796792     0.16200
O2398       O  0.59233710  0.08803827  0.15091789    -0.60800
H2399       H  0.57886158  0.09117787  0.14056320     0.43200
H2400       H  0.67197837  0.00189228  0.10962069     0.43200
C2401       C  0.72912501  0.34863720  0.13122274    -0.05900
C2402       C  0.74116130  0.33962645  0.11088052    -0.33300
C2403       C  0.76524337  0.33981318  0.11060081     0.35900
C2404       C  0.77765175  0.34977548  0.13085784    -0.06300
C2405       C  0.76531246  0.35979255  0.15100441    -0.33200
C2406       C  0.74141706  0.35938904  0.15126577     0.35800
H2407       H  0.73188631  0.33108220  0.09533334     0.16200
O2408       O  0.77633969  0.33091117  0.09037220    -0.60700
H2409       H  0.77414571  0.36804767  0.16684878     0.16200
O2410       O  0.73020767  0.36940148  0.17131010    -0.60800
H2411       H  0.72870500  0.40104512  0.17111035     0.43200
H2412       H  0.77675416  0.29920522  0.08947094     0.43200
C2413       C  0.62932336  0.22628183  0.22719061    -0.05900
C2414       C  0.64998495  0.22608614  0.23976999    -0.33300
C2415       C  0.65035271  0.21751270  0.26341095     0.35900
C2416       C  0.62974500  0.20932053  0.27529200    -0.06300
C2417       C  0.60899175  0.20975950  0.26288890    -0.33200
C2418       C  0.60867217  0.21765484  0.23901400     0.35800
H2419       H  0.66613473  0.23267964  0.23128205     0.16200
O2420       O  0.67096299  0.21885659  0.27489698    -0.60700
H2421       H  0.59297754  0.20318689  0.27163474     0.16200
O2422       O  0.58801261  0.21818769  0.22765401    -0.60800
H2423       H  0.58457916  0.18773312  0.22426312     0.43200
H2424       H  0.67850322  0.19110806  0.27152506     0.43200
C2425       C  0.22944832  0.84014600  0.37478020    -0.05900
C2426       C  0.24193105  0.85563530  0.39375450    -0.33300
C2427       C  0.26603065  0.85575708  0.39361042     0.35900
C2428       C  0.27801212  0.83949757  0.37438000    -0.06300
C2429       C  0.26518932  0.82300351  0.35572658    -0.33200
C2430       C  0.24128528  0.82317196  0.35586711     0.35800
H2431       H  0.23298307  0.86902700  0.40840402     0.16200
O2432       O  0.27755681  0.87154303  0.41239787    -0.60700
H2433       H  0.27363704  0.80972404  0.34076002     0.16200
O2434       O  0.22961174  0.80671555  0.33730807    -0.60800
H2435       H  0.22568546  0.77691912  0.34178638     0.43200
H2436       H  0.27778943  0.90304986  0.41016852     0.43200
C2437       C  0.48234629  0.73425688  0.38636045    -0.05900
C2438       C  0.49338207  0.72149859  0.40674472    -0.33300
C2439       C  0.51698899  0.71362854  0.40712236     0.35900
C2440       C  0.53016363  0.71885868  0.38682337    -0.06300
C2441       C  0.51916912  0.73372523  0.36670955    -0.33200
C2442       C  0.49547594  0.74112219  0.36634376     0.35800
H2443       H  0.48357243  0.71693292  0.42240245     0.16200
O2444       O  0.52681650  0.70005828  0.42740073    -0.60700
H2445       H  0.52879456  0.73855638  0.35096836     0.16200
O2446       O  0.48543600  0.75660883  0.34657351    -0.60800
H2447       H  0.48361727  0.73136773  0.33639830     0.43200
H2448       H  0.53333792  0.72622422  0.43452144     0.43200
C2449       C  0.38177279  0.59099013  0.37852730    -0.05900
C2450       C  0.36456531  0.56893126  0.39082781    -0.33300
C2451       C  0.36285106  0.52424428  0.39022519     0.35900
C2452       C  0.37848885  0.50020587  0.37707687    -0.06300
C2453       C  0.39575404  0.52226856  0.36486015    -0.33200
C2454       C  0.39745634  0.56694517  0.36544378     0.35800
H2455       H  0.35207751  0.58631532  0.40092879     0.16200
O2456       O  0.34548919  0.50472704  0.40220701    -0.60700
H2457       H  0.40824002  0.50490978  0.35474588     0.16200
O2458       O  0.41482096  0.58646783  0.35346045    -0.60800
H2459       H  0.40911418  0.58890314  0.33737244     0.43200
H2460       H  0.35142711  0.50135375  0.41816211     0.43200
C2461       C  0.38013145  0.09092615  0.37512958    -0.05900
C2462       C  0.36368841  0.06853972  0.38825995    -0.33300
C2463       C  0.36306977  0.02380504  0.38877430     0.35900
C2464       C  0.37894539  0.00003380  0.37578347    -0.06300
C2465       C  0.39525241  0.02241198  0.36245740    -0.33200
C2466       C  0.39590578  0.06719004  0.36199154     0.35800
H2467       H  0.35115275  0.08566224  0.39842960     0.16200
O2468       O  0.34663500  0.00390779  0.40185205    -0.60700
H2469       H  0.40779615  0.00524437  0.35231956     0.16200
O2470       O  0.41239412  0.08715058  0.34900484    -0.60800
H2471       H  0.40605104  0.08814957  0.33311516     0.43200
H2472       H  0.35294576  0.00338927  0.41776182     0.43200
C2473       C  0.27663840  0.33664570  0.37243388    -0.05900
C2474       C  0.26507842  0.34333610  0.39336791    -0.33300
C2475       C  0.24103571  0.34378754  0.39406848     0.35900
C2476       C  0.22831699  0.33653497  0.37374213    -0.06300
C2477       C  0.23986266  0.32946732  0.35299867    -0.33200
C2478       C  0.26365665  0.33019778  0.35209297     0.35800
H2479       H  0.27465285  0.34844127  0.40916957     0.16200
O2480       O  0.23022603  0.35299730  0.41443060    -0.60700
H2481       H  0.23033523  0.32457498  0.33712748     0.16200
O2482       O  0.27397705  0.32529949  0.33102932    -0.60800
H2483       H  0.27371187  0.35418061  0.32385032     0.43200
H2484       H  0.22682779  0.38410928  0.41367340     0.43200
C2485       C  0.52761268  0.21375656  0.38530538    -0.05900
C2486       C  0.51681991  0.22359211  0.40622453    -0.33300
C2487       C  0.49320283  0.23151904  0.40705327     0.35900
C2488       C  0.47984914  0.22941371  0.38670003    -0.06300
C2489       C  0.49068680  0.21884165  0.36586723    -0.33200
C2490       C  0.51429507  0.21131131  0.36502610     0.35800
H2491       H  0.52674452  0.22509016  0.42204087     0.16200
O2492       O  0.48342328  0.24108208  0.42788704    -0.60700
H2493       H  0.48091694  0.21689904  0.34997674     0.16200
O2494       O  0.52395301  0.19938924  0.34448588    -0.60800
H2495       H  0.52518396  0.22620373  0.33535821     0.43200
H2496       H  0.47898128  0.21304937  0.43461255     0.43200
C2497       C  0.27664946  0.59379408  0.13072271    -0.05900
C2498       C  0.26440039  0.60505633  0.15069468    -0.33300
C2499       C  0.24058481  0.60656630  0.15073324     0.35900
C2500       C  0.22823646  0.59628536  0.13066070    -0.06300
C2501       C  0.24017552  0.58541810  0.11053072    -0.33200
C2502       C  0.26422922  0.58389498  0.11044640     0.35800
H2503       H  0.27324394  0.61308307  0.16656643     0.16200
O2504       O  0.22950111  0.61786943  0.17064712    -0.60700
H2505       H  0.23083578  0.57688965  0.09501696     0.16200
O2506       O  0.27527954  0.57358017  0.09038623    -0.60800
H2507       H  0.27482149  0.54186126  0.08962206     0.43200
H2508       H  0.22798147  0.64947697  0.16985653     0.43200
C2509       C  0.47943225  0.70660172  0.11885225    -0.05900
C2510       C  0.49121145  0.70818573  0.09772721    -0.33300
C2511       C  0.51468857  0.71740820  0.09697690     0.35900
C2512       C  0.52689491  0.72497529  0.11758120    -0.06300
C2513       C  0.51526819  0.72252070  0.13868928    -0.33200
C2514       C  0.49179510  0.71370780  0.13946131     0.35800
H2515       H  0.48218409  0.70241395  0.08166848     0.16200
O2516       O  0.52550373  0.71868058  0.07601415    -0.60700
H2517       H  0.52432776  0.72814646  0.15475060     0.16200
O2518       O  0.48137694  0.71042981  0.16055729    -0.60800
H2519       H  0.47891498  0.74037746  0.16562966     0.43200
H2520       H  0.53349918  0.69076367  0.07469405     0.43200
C2521       C  0.37865452  0.72548340  0.27726440    -0.05900
C2522       C  0.35781821  0.71621853  0.26613478    -0.33300
C2523       C  0.35704070  0.70594823  0.24268822     0.35900
C2524       C  0.37739437  0.70534008  0.22948004    -0.06300
C2525       C  0.39826389  0.71526062  0.24053800    -0.33200
C2526       C  0.39901678  0.72492576  0.26421695     0.35800
H2527       H  0.34188888  0.71676917  0.27570408     0.16200
O2528       O  0.33607116  0.69800887  0.23275643    -0.60700
H2529       H  0.41412487  0.71521563  0.23087210     0.16200
O2530       O  0.41958458  0.73575947  0.27413852    -0.60800
H2531       H  0.42693992  0.70811839  0.27823040     0.43200
H2532       H  0.33247174  0.66782639  0.23673584     0.43200
C2533       C  0.38128862  0.84329808  0.12944606    -0.05900
C2534       C  0.36854324  0.86619658  0.11281984    -0.33300
C2535       C  0.36858664  0.91093352  0.11216021     0.35900
C2536       C  0.38171548  0.93434781  0.12825857    -0.06300
C2537       C  0.39442603  0.91151274  0.14498127    -0.33200
C2538       C  0.39432748  0.86659708  0.14566583     0.35800
H2539       H  0.35846012  0.84943080  0.09997588     0.16200
O2540       O  0.35610008  0.93117201  0.09525642    -0.60700
H2541       H  0.40449273  0.92844664  0.15777373     0.16200
O2542       O  0.40653082  0.84605041  0.16268116    -0.60800
H2543       H  0.42271073  0.84666998  0.15747473     0.43200
H2544       H  0.34028949  0.93308152  0.10142198     0.43200
C2545       C  0.37593437  0.43434045  0.12723640    -0.05900
C2546       C  0.39311622  0.41174364  0.13930858    -0.33300
C2547       C  0.39383852  0.36709228  0.13937032     0.35900
C2548       C  0.37713028  0.34352918  0.12718405    -0.06300
C2549       C  0.35977010  0.36605321  0.11527316    -0.33200
C2550       C  0.35899772  0.41087439  0.11531840     0.35800
H2551       H  0.40638228  0.42864979  0.14872333     0.16200
O2552       O  0.41102803  0.34706103  0.15148940    -0.60700
H2553       H  0.34657072  0.34893811  0.10587679     0.16200
O2554       O  0.34163188  0.43114265  0.10358358    -0.60800
H2555       H  0.32926029  0.43506045  0.11507967     0.43200
H2556       H  0.42435645  0.34662385  0.14091572     0.43200
C2557       C  0.23196808  0.07951142  0.12856001    -0.05900
C2558       C  0.24395386  0.07946333  0.14958624    -0.33300
C2559       C  0.26777915  0.07940173  0.15022163     0.35900
C2560       C  0.28040853  0.08038399  0.12953102    -0.06300
C2561       C  0.26854903  0.07877598  0.10836995    -0.33200
C2562       C  0.24443935  0.07838671  0.10777743     0.35800
H2563       H  0.23478413  0.07953724  0.16581390     0.16200
O2564       O  0.27852068  0.07877961  0.17132144    -0.60700
H2565       H  0.27791844  0.07898567  0.09226812     0.16200
O2566       O  0.23331448  0.07522911  0.08696241    -0.60800
H2567       H  0.23443071  0.10410119  0.07988001     0.43200
H2568       H  0.28206551  0.04819733  0.17433484     0.43200
C2569       C  0.47854014  0.21877551  0.11634230    -0.05900
C2570       C  0.49036740  0.22164563  0.13741655    -0.33300
C2571       C  0.51405777  0.22838995  0.13804233     0.35900
C2572       C  0.52645466  0.23282704  0.11732488    -0.06300
C2573       C  0.51449263  0.23145178  0.09624009    -0.33200
C2574       C  0.49078738  0.22453292  0.09562350     0.35800
H2575       H  0.48134627  0.21748491  0.15357556     0.16200
O2576       O  0.52472508  0.23222176  0.15905392    -0.60700
H2577       H  0.52356324  0.23559967  0.08010836     0.16200
O2578       O  0.47983477  0.22337440  0.07465502    -0.60800
H2579       H  0.47301817  0.25225843  0.07265322     0.43200
H2580       H  0.52655431  0.20246221  0.16480072     0.43200
C2581       C  0.37763286  0.20714474  0.22723230    -0.05900
C2582       C  0.39853380  0.21112992  0.23920493    -0.33300
C2583       C  0.39898662  0.22004035  0.26297032     0.35900
C2584       C  0.37828309  0.22564667  0.27517421    -0.06300
C2585       C  0.35745763  0.22242803  0.26297866    -0.33200
C2586       C  0.35699679  0.21335458  0.23938710     0.35800
H2587       H  0.41460669  0.20677215  0.23019718     0.16200
O2588       O  0.41975421  0.22504037  0.27380528    -0.60700
H2589       H  0.34127355  0.22717708  0.27172942     0.16200
O2590       O  0.33623449  0.21256599  0.22816453    -0.60800
H2591       H  0.32958864  0.18404732  0.23166990     0.43200
H2592       H  0.42561997  0.19557241  0.27630328     0.43200
C2593       C  0.12479580  0.82779072  0.52763715    -0.05900
C2594       C  0.10414343  0.82022674  0.51573762    -0.33300
C2595       C  0.10362761  0.81721424  0.49165809     0.35900
C2596       C  0.12404648  0.82131766  0.47887709    -0.06300
C2597       C  0.14495990  0.82498183  0.49085117    -0.33200
C2598       C  0.14545670  0.82844247  0.51499462     0.35800
H2599       H  0.08808919  0.81847679  0.52504639     0.16200
O2600       O  0.08295225  0.81136260  0.48071037    -0.60700
H2601       H  0.16085002  0.82862490  0.48141447     0.16200
O2602       O  0.16597992  0.83667209  0.52572024    -0.60800
H2603       H  0.17324931  0.80824383  0.52793090     0.43200
H2604       H  0.07514341  0.83956468  0.48131839     0.43200
C2605       C  0.12195433  0.32632701  0.52558192    -0.05900
C2606       C  0.14268409  0.32140886  0.51356311    -0.33300
C2607       C  0.14291017  0.31874225  0.48939274     0.35900
C2608       C  0.12213079  0.32074459  0.47683077    -0.06300
C2609       C  0.10139189  0.32153178  0.48904285    -0.33200
C2610       C  0.10114437  0.32435420  0.51305937     0.35800
H2611       H  0.15889013  0.32265594  0.52273478     0.16200
O2612       O  0.16361558  0.31862137  0.47826768    -0.60700
H2613       H  0.08517439  0.32240704  0.47985997     0.16200
O2614       O  0.08037382  0.32769211  0.52393807    -0.60800
H2615       H  0.07590635  0.29785060  0.52771274     0.43200
H2616       H  0.16804718  0.28802274  0.47732033     0.43200
C2617       C  0.12784436  0.60286080  0.62786596    -0.05900
C2618       C  0.13784880  0.62598912  0.60959218    -0.33300
C2619       C  0.13875477  0.67078177  0.60978509     0.35900
C2620       C  0.12930846  0.69364306  0.62840077    -0.06300
C2621       C  0.11935516  0.67048173  0.64669384    -0.33200
C2622       C  0.11856265  0.62569971  0.64655051     0.35800
H2623       H  0.14495550  0.60933685  0.59489324     0.16200
O2624       O  0.14815221  0.69174632  0.59125914    -0.60700
H2625       H  0.11219176  0.68710978  0.66137009     0.16200
O2626       O  0.10941726  0.60471801  0.66519063    -0.60800
H2627       H  0.09265972  0.60390562  0.66223956     0.43200
H2628       H  0.16497918  0.69008762  0.59366498     0.43200
C2629       C  0.12820180  0.19391759  0.62689898    -0.05900
C2630       C  0.12007198  0.17185462  0.64648158    -0.33300
C2631       C  0.11907907  0.12702258  0.64707304     0.35900
C2632       C  0.12597540  0.10317888  0.62772105    -0.06300
C2633       C  0.13434146  0.12534875  0.60825213    -0.33200
C2634       C  0.13543787  0.17010879  0.60771334     0.35800
H2635       H  0.11455629  0.18944883  0.66155404     0.16200
O2636       O  0.11157285  0.10702195  0.66674421    -0.60700
H2637       H  0.13982303  0.10796253  0.59310275     0.16200
O2638       O  0.14313345  0.19015656  0.58812499    -0.60800
H2639       H  0.12950944  0.19244731  0.57790202     0.43200
H2640       H  0.12543269  0.10365187  0.67655392     0.43200
C2641       C  0.12350409  0.61364671  0.97747141    -0.05900
C2642       C  0.14424350  0.61464170  0.98983685    -0.33300
C2643       C  0.14433351  0.61618863  0.01400815     0.35900
C2644       C  0.12338516  0.61684450  0.02621531    -0.06300
C2645       C  0.10280375  0.61991111  0.01368930    -0.33200
C2646       C  0.10273249  0.61853298  0.98961163     0.35800
H2647       H  0.16041447  0.61115761  0.98088983     0.16200
O2648       O  0.16488317  0.61258636  0.02542789    -0.60700
H2649       H  0.08652624  0.62122954  0.02261709     0.16200
O2650       O  0.08209652  0.61978516  0.97819642    -0.60800
H2651       H  0.07913020  0.65060022  0.97526688     0.43200
H2652       H  0.17109650  0.64212661  0.02605074     0.43200
C2653       C  0.13343172  0.47980833  0.77537487    -0.05900
C2654       C  0.11280252  0.48302927  0.76290099    -0.33300
C2655       C  0.11226023  0.47638520  0.73899370     0.35900
C2656       C  0.13263395  0.46632480  0.72705627    -0.06300
C2657       C  0.15322292  0.46304121  0.73969935    -0.33200
C2658       C  0.15376145  0.46994260  0.76350784     0.35800
H2659       H  0.09703077  0.49118428  0.77168279     0.16200
O2660       O  0.09164196  0.47919849  0.72764816    -0.60700
H2661       H  0.16911937  0.45491509  0.73114814     0.16200
O2662       O  0.17413918  0.46531656  0.77516819    -0.60800
H2663       H  0.18286277  0.49194365  0.77196873     0.43200
H2664       H  0.08518788  0.44981263  0.72808666     0.43200
C2665       C  0.12533092  0.11569749  0.97664882    -0.05900
C2666       C  0.14624512  0.11359311  0.98870865    -0.33300
C2667       C  0.14674970  0.11291089  0.01291622     0.35900
C2668       C  0.12605640  0.11439912  0.02550211    -0.06300
C2669       C  0.10539267  0.12042367  0.01340586    -0.33200
C2670       C  0.10489394  0.12116547  0.98927393     0.35800
H2671       H  0.16216553  0.10938084  0.97940779     0.16200
O2672       O  0.16733758  0.10653836  0.02390561    -0.60700
H2673       H  0.08934195  0.12276456  0.02267786     0.16200
O2674       O  0.08425566  0.12661203  0.97818316    -0.60800
H2675       H  0.07625351  0.09868189  0.97954500     0.43200
H2676       H  0.17467057  0.13517871  0.02444392     0.43200
C2677       C  0.13030597  0.84141255  0.87717258    -0.05900
C2678       C  0.11060641  0.81944231  0.86999356    -0.33300
C2679       C  0.10959979  0.77476996  0.87087744     0.35900
C2680       C  0.12876932  0.75075581  0.87859460    -0.06300
C2681       C  0.14850623  0.77274760  0.88580990    -0.33200
C2682       C  0.14946072  0.81754072  0.88499429     0.35800
H2683       H  0.09560845  0.83699115  0.86421343     0.16200
O2684       O  0.08958191  0.75508744  0.86433578    -0.60700
H2685       H  0.16348279  0.75519907  0.89164344     0.16200
O2686       O  0.16936299  0.83751550  0.89162354    -0.60800
H2687       H  0.17822029  0.84147969  0.87720051     0.43200
H2688       H  0.08121394  0.74954648  0.87890806     0.43200
C2689       C  0.13168824  0.25073152  0.87300800    -0.05900
C2690       C  0.11527805  0.27321814  0.85975081    -0.33300
C2691       C  0.11469433  0.31803038  0.85928657     0.35900
C2692       C  0.13074051  0.34176949  0.87224029    -0.06300
C2693       C  0.14749675  0.31928754  0.88503939    -0.33200
C2694       C  0.14796437  0.27449940  0.88565651     0.35800
H2695       H  0.10246368  0.25609866  0.84983491     0.16200
O2696       O  0.09783687  0.33800778  0.84668500    -0.60700
H2697       H  0.16025384  0.33639881  0.89503657     0.16200
O2698       O  0.16452522  0.25455397  0.89866353    -0.60800
H2699       H  0.15788041  0.25200056  0.91433383     0.43200
H2700       H  0.10418980  0.34093886  0.83091483     0.43200
C2701       C  0.13327012  0.97646285  0.77670185    -0.05900
C2702       C  0.11216930  0.97878112  0.76497063    -0.33300
C2703       C  0.11116005  0.97578177  0.74086687     0.35900
C2704       C  0.13147657  0.96961969  0.72813213    -0.06300
C2705       C  0.15253447  0.96775987  0.74003875    -0.33200
C2706       C  0.15352518  0.97086496  0.76397273     0.35800
H2707       H  0.09643579  0.98393288  0.77445600     0.16200
O2708       O  0.09018461  0.97742358  0.73013507    -0.60700
H2709       H  0.16845509  0.96305957  0.73081055     0.16200
O2710       O  0.17446679  0.96818815  0.77475367    -0.60800
H2711       H  0.17639889  0.93745177  0.77866984     0.43200
H2712       H  0.08701664  0.00835911  0.72783888     0.43200
C2713       C  0.88741648  0.81988121  0.97873503    -0.05900
C2714       C  0.90801465  0.82386048  0.99124750    -0.33300
C2715       C  0.90823085  0.82392841  0.01534022     0.35900
C2716       C  0.88748620  0.82084496  0.02776766    -0.06300
C2717       C  0.86721443  0.81192441  0.01539055    -0.33200
C2718       C  0.86711164  0.81093196  0.99110069     0.35800
H2719       H  0.92409568  0.82896208  0.98234264     0.16200
O2720       O  0.92881776  0.82954063  0.02645521    -0.60700
H2721       H  0.85109928  0.80836293  0.02442998     0.16200
O2722       O  0.84673388  0.80449015  0.97978372    -0.60800
H2723       H  0.84591824  0.77313568  0.97720421     0.43200
H2724       H  0.93374821  0.80035458  0.03109716     0.43200
C2725       C  0.98267056  0.95546433  0.88320484    -0.05900
C2726       C  0.99448600  0.96024328  0.90417522    -0.33300
C2727       C  0.01785530  0.97000841  0.90453113     0.35900
C2728       C  0.02984351  0.97554341  0.88364959    -0.06300
C2729       C  0.01814732  0.96976005  0.86267027    -0.33200
C2730       C  0.99478451  0.95973954  0.86232858     0.35800
H2731       H  0.98555393  0.95652454  0.92041836     0.16200
O2732       O  0.02880502  0.97377648  0.92541008    -0.60700
H2733       H  0.02704513  0.97361610  0.84642009     0.16200
O2734       O  0.98407792  0.95365387  0.84149457    -0.60800
H2735       H  0.98600773  0.92276379  0.83807039     0.43200
H2736       H  0.03397911  0.94438325  0.92935741     0.43200
C2737       C  0.88486000  0.32133019  0.97836168    -0.05900
C2738       C  0.90568413  0.31869427  0.99055609    -0.33300
C2739       C  0.90617138  0.31806805  0.01468585     0.35900
C2740       C  0.88551712  0.31980497  0.02731402    -0.06300
C2741       C  0.86463104  0.31787892  0.01513957    -0.33200
C2742       C  0.86416707  0.31861100  0.99089699     0.35800
H2743       H  0.92184356  0.31919355  0.98138719     0.16200
O2744       O  0.92702038  0.31688604  0.02575102    -0.60700
H2745       H  0.84852337  0.31901891  0.02436882     0.16200
O2746       O  0.84336707  0.32058535  0.97984662    -0.60800
H2747       H  0.83858770  0.29033382  0.97786425     0.43200
H2748       H  0.93357440  0.34602753  0.02392239     0.43200
C2749       C  0.87981405  0.59508001  0.87488480    -0.05900
C2750       C  0.89881159  0.61721939  0.86608459    -0.33300
C2751       C  0.89980974  0.66196195  0.86663956     0.35900
C2752       C  0.88139163  0.68593472  0.87590275    -0.06300
C2753       C  0.86220775  0.66384702  0.88431864    -0.33200
C2754       C  0.86119472  0.61906730  0.88370204     0.35800
H2755       H  0.91334050  0.59979910  0.85926761     0.16200
O2756       O  0.91913113  0.68169586  0.85833307    -0.60700
H2757       H  0.84772726  0.68132597  0.89119552     0.16200
O2758       O  0.84182591  0.59926901  0.89182183    -0.60800
H2759       H  0.83210139  0.59439100  0.87800561     0.43200
H2760       H  0.92927452  0.68543756  0.87194884     0.43200
C2761       C  0.88052242  0.09480982  0.87512238    -0.05900
C2762       C  0.89945430  0.11747113  0.86668359    -0.33300
C2763       C  0.89995325  0.16224099  0.86711437     0.35900
C2764       C  0.88108263  0.18566340  0.87590640    -0.06300
C2765       C  0.86196028  0.16296862  0.88398113    -0.33200
C2766       C  0.86155944  0.11810657  0.88370649     0.35800
H2767       H  0.91431870  0.10044631  0.86031054     0.16200
O2768       O  0.91950450  0.18254915  0.85981149    -0.60700
H2769       H  0.84713985  0.17998615  0.89045281     0.16200
O2770       O  0.84223005  0.09746192  0.89132749    -0.60800
H2771       H  0.84339521  0.09763616  0.90840028     0.43200
H2772       H  0.91811548  0.18409937  0.84277401     0.43200
C2773       C  0.98165846  0.45428131  0.88244421    -0.05900
C2774       C  0.99185700  0.47052759  0.90246099    -0.33300
C2775       C  0.01499963  0.48178203  0.90278979     0.35900
C2776       C  0.02853013  0.47683590  0.88273167    -0.06300
C2777       C  0.01825320  0.45979639  0.86276745    -0.33200
C2778       C  0.99505439  0.44839839  0.86256482     0.35800
H2779       H  0.98175127  0.47493963  0.91792711     0.16200
O2780       O  0.02403528  0.49783553  0.92285903    -0.60700
H2781       H  0.02816439  0.45527997  0.84720067     0.16200
O2782       O  0.98576774  0.43079559  0.84299469    -0.60800
H2783       H  0.98652970  0.39936835  0.84546029     0.43200
H2784       H  0.02998493  0.47254860  0.93137361     0.43200
C2785       C  0.88127024  0.61212221  0.52827486    -0.05900
C2786       C  0.90228898  0.61757523  0.51681001    -0.33300
C2787       C  0.90336065  0.62008076  0.49274145     0.35900
C2788       C  0.88317591  0.61680545  0.47934865    -0.06300
C2789       C  0.86193545  0.61530966  0.49083780    -0.33200
C2790       C  0.86086539  0.61303971  0.51507562     0.35800
H2791       H  0.91820130  0.61804663  0.52652215     0.16200
O2792       O  0.92446066  0.62342222  0.48250123    -0.60700
H2793       H  0.84615574  0.61287458  0.48100605     0.16200
O2794       O  0.83993931  0.60769868  0.52540942    -0.60800
H2795       H  0.83452709  0.63709594  0.52883331     0.43200
H2796       H  0.92534811  0.65331663  0.47673633     0.43200
C2797       C  0.97877935  0.47468385  0.62182656    -0.05900
C2798       C  0.99139295  0.48096283  0.60144479    -0.33300
C2799       C  0.01497358  0.47323863  0.60077077     0.35900
C2800       C  0.02661040  0.45961679  0.62079607    -0.06300
C2801       C  0.01416883  0.45325319  0.64120021    -0.33200
C2802       C  0.99045077  0.46037813  0.64181834     0.35800
H2803       H  0.98298913  0.49199927  0.58582278     0.16200
O2804       O  0.02666467  0.48088315  0.58067310    -0.60700
H2805       H  0.02282937  0.44220543  0.65668175     0.16200
O2806       O  0.97901540  0.45360342  0.66212469    -0.60800
H2807       H  0.97888943  0.48180176  0.66994429     0.43200
H2808       H  0.02362233  0.45558553  0.57082087     0.43200
C2809       C  0.87351665  0.46418183  0.72767510    -0.05900
C2810       C  0.89461474  0.46563378  0.73948087    -0.33300
C2811       C  0.89555436  0.46359695  0.76367226     0.35900
C2812       C  0.87517216  0.45903445  0.77654575    -0.06300
C2813       C  0.85415005  0.45730868  0.76460724    -0.33200
C2814       C  0.85317867  0.46007820  0.74057505     0.35800
H2815       H  0.91044275  0.46963908  0.72998206     0.16200
O2816       O  0.91654104  0.46470207  0.77439484    -0.60700
H2817       H  0.83820278  0.45342763  0.77391819     0.16200
O2818       O  0.83220915  0.45757180  0.72983035    -0.60800
H2819       H  0.82502433  0.48605830  0.73203555     0.43200
H2820       H  0.92021901  0.49556519  0.77602438     0.43200
C2821       C  0.88142173  0.11196171  0.52632404    -0.05900
C2822       C  0.90256790  0.11924750  0.51541260    -0.33300
C2823       C  0.90393307  0.12358951  0.49144072     0.35900
C2824       C  0.88397282  0.12014548  0.47778731    -0.06300
C2825       C  0.86260193  0.11689924  0.48882493    -0.33200
C2826       C  0.86120731  0.11290179  0.51288927     0.35800
H2827       H  0.91829534  0.11969090  0.52542647     0.16200
O2828       O  0.92505215  0.12867040  0.48145715    -0.60700
H2829       H  0.84701340  0.11408157  0.47871133     0.16200
O2830       O  0.84022350  0.10558526  0.52274102    -0.60800
H2831       H  0.83363620  0.13443411  0.52534618     0.43200
H2832       H  0.92699652  0.16005377  0.47963995     0.43200
C2833       C  0.87764267  0.74203779  0.63086889    -0.05900
C2834       C  0.86313642  0.76348646  0.61532309    -0.33300
C2835       C  0.86313579  0.80811441  0.61367099     0.35900
C2836       C  0.87761721  0.83288762  0.62809438    -0.06300
C2837       C  0.89231341  0.81145593  0.64350535    -0.33200
C2838       C  0.89244225  0.76669758  0.64501202     0.35800
H2839       H  0.85173599  0.74566255  0.60410314     0.16200
O2840       O  0.84861424  0.82691713  0.59796384    -0.60700
H2841       H  0.90375843  0.82938510  0.65462855     0.16200
O2842       O  0.90737255  0.74766424  0.66023885    -0.60800
H2843       H  0.89881785  0.74544882  0.67494749     0.43200
H2844       H  0.85705854  0.82660039  0.58314369     0.43200
C2845       C  0.87470802  0.24207314  0.62545360    -0.05900
C2846       C  0.88873273  0.26444080  0.64115692    -0.33300
C2847       C  0.88928097  0.30913278  0.64160221     0.35900
C2848       C  0.87575095  0.33302208  0.62598856    -0.06300
C2849       C  0.86145476  0.31069621  0.61045464    -0.33200
C2850       C  0.86089923  0.26584611  0.61003741     0.35800
H2851       H  0.89948430  0.24730169  0.65334900     0.16200
O2852       O  0.90344923  0.32885192  0.65722954    -0.60700
H2853       H  0.85071549  0.32796318  0.59830563     0.16200
O2854       O  0.84684622  0.24584968  0.59439750    -0.60800
H2855       H  0.85625255  0.24258153  0.58029477     0.43200
H2856       H  0.89421464  0.33150674  0.67148579     0.43200
C2857       C  0.97783899  0.97575404  0.62167230    -0.05900
C2858       C  0.99037350  0.97788835  0.60102575    -0.33300
C2859       C  0.01391577  0.96954684  0.60070002     0.35900
C2860       C  0.02555654  0.95924621  0.62129196    -0.06300
C2861       C  0.01325523  0.95792759  0.64204879    -0.33200
C2862       C  0.98963223  0.96598701  0.64239022     0.35800
H2863       H  0.98192136  0.98589159  0.58490866     0.16200
O2864       O  0.02557274  0.97330509  0.58027980    -0.60700
H2865       H  0.02193245  0.95006081  0.65807330     0.16200
O2866       O  0.97839412  0.96441751  0.66311224    -0.60800
H2867       H  0.97953045  0.99381257  0.66944677     0.43200
H2868       H  0.02206579  0.94671797  0.57164404     0.43200
C2869       C  0.87562889  0.96243249  0.77734364    -0.05900
C2870       C  0.89566939  0.95709356  0.76431274    -0.33300
C2871       C  0.89531294  0.96177994  0.74022200     0.35900
C2872       C  0.87471813  0.97300143  0.72873638    -0.06300
C2873       C  0.85482229  0.97904934  0.74202911    -0.33200
C2874       C  0.85510895  0.97347073  0.76595628     0.35800
H2875       H  0.91155414  0.94796877  0.77275537     0.16200
O2876       O  0.91532918  0.95627706  0.72826940    -0.60700
H2877       H  0.83877890  0.98808987  0.73389081     0.16200
O2878       O  0.83530916  0.98004082  0.77816313    -0.60800
H2879       H  0.82617174  0.95351722  0.77610564     0.43200
H2880       H  0.91647788  0.92497866  0.72563887     0.43200
C2881       C  0.38325150  0.86610479  0.52734798    -0.05900
C2882       C  0.40437369  0.86871667  0.51577647    -0.33300
C2883       C  0.40539915  0.87064963  0.49167482     0.35900
C2884       C  0.38506243  0.86893764  0.47838875    -0.06300
C2885       C  0.36390316  0.87058979  0.48995420    -0.33200
C2886       C  0.36288692  0.86956694  0.51419743     0.35800
H2887       H  0.42031266  0.86766322  0.52543309     0.16200
O2888       O  0.42650839  0.87196909  0.48131875    -0.60700
H2889       H  0.34801315  0.86980201  0.48022488     0.16200
O2890       O  0.34184993  0.86825930  0.52464964    -0.60800
H2891       H  0.33732097  0.89866780  0.52649626     0.43200
H2892       H  0.42822881  0.90181736  0.47567166     0.43200
C2893       C  0.27725830  0.85999778  0.63482038    -0.05900
C2894       C  0.26536309  0.86154308  0.65579563    -0.33300
C2895       C  0.24163346  0.85605242  0.65663630     0.35900
C2896       C  0.22897616  0.84895772  0.63612992    -0.06300
C2897       C  0.24083976  0.84746068  0.61507814    -0.33200
C2898       C  0.26473163  0.85298109  0.61430031     0.35800
H2899       H  0.27460706  0.86595691  0.67186909     0.16200
O2900       O  0.23111462  0.85640293  0.67778645    -0.60700
H2901       H  0.23156351  0.84270157  0.59906685     0.16200
O2902       O  0.27574537  0.84893185  0.59357081    -0.60800
H2903       H  0.27397744  0.87715103  0.58587145     0.43200
H2904       H  0.23065240  0.88693870  0.68244616     0.43200
C2905       C  0.38144037  0.36765431  0.52593904    -0.05900
C2906       C  0.40242570  0.36946570  0.51405630    -0.33300
C2907       C  0.40326950  0.36956182  0.48993250     0.35900
C2908       C  0.38282126  0.36828478  0.47681788    -0.06300
C2909       C  0.36176135  0.37022294  0.48861003    -0.33200
C2910       C  0.36094990  0.36991608  0.51291115     0.35800
H2911       H  0.41849462  0.36901819  0.52350443     0.16200
O2912       O  0.42430169  0.37012852  0.47936702    -0.60700
H2913       H  0.34578796  0.36919715  0.47902802     0.16200
O2914       O  0.34002395  0.36830210  0.52356647    -0.60800
H2915       H  0.33548332  0.39864155  0.52565992     0.43200
H2916       H  0.43043457  0.34064415  0.48109957     0.43200
C2917       C  0.37480992  0.50603574  0.63217846    -0.05900
C2918       C  0.39068533  0.52789686  0.64635621    -0.33300
C2919       C  0.39080650  0.57262011  0.64791774     0.35900
C2920       C  0.37500071  0.59697365  0.63497753    -0.06300
C2921       C  0.35857492  0.57505643  0.62147829    -0.33200
C2922       C  0.35838826  0.53031463  0.61999118     0.35800
H2923       H  0.40342493  0.51038318  0.65622345     0.16200
O2924       O  0.40696500  0.59196332  0.66161739    -0.60700
H2925       H  0.34583347  0.59260410  0.61162845     0.16200
O2926       O  0.34188952  0.51090336  0.60673099    -0.60800
H2927       H  0.34810242  0.51100294  0.59083103     0.43200
H2928       H  0.39992348  0.59343837  0.67714096     0.43200
C2929       C  0.38002941  0.00615862  0.62476627    -0.05900
C2930       C  0.39959849  0.02807448  0.63290788    -0.33300
C2931       C  0.40044863  0.07287723  0.63341240     0.35900
C2932       C  0.38151135  0.09695361  0.62569600    -0.06300
C2933       C  0.36218573  0.07511512  0.61700133    -0.33200
C2934       C  0.36139300  0.03032442  0.61632677     0.35800
H2935       H  0.41445890  0.01043766  0.63895769     0.16200
O2936       O  0.42020038  0.09265893  0.64065203    -0.60700
H2937       H  0.34738593  0.09283461  0.61086741     0.16200
O2938       O  0.34195853  0.01071802  0.60816100    -0.60800
H2939       H  0.34404278  0.00913781  0.59121315     0.43200
H2940       H  0.41928187  0.09299029  0.65772514     0.43200
C2941       C  0.27708145  0.35178119  0.63434176    -0.05900
C2942       C  0.26533736  0.34865306  0.61319583    -0.33300
C2943       C  0.24144440  0.34301027  0.61247848     0.35900
C2944       C  0.22874594  0.34105820  0.63314707    -0.06300
C2945       C  0.24060876  0.34408640  0.65424358    -0.33200
C2946       C  0.26435380  0.34963266  0.65498030     0.35800
H2947       H  0.27476652  0.34928418  0.59713219     0.16200
O2948       O  0.23067661  0.34117773  0.59145138    -0.60700
H2949       H  0.23135770  0.34313340  0.67041562     0.16200
O2950       O  0.27495460  0.35263880  0.67608985    -0.60800
H2951       H  0.27407972  0.38337229  0.68025791     0.43200
H2952       H  0.23047660  0.31035416  0.58737564     0.43200
C2953       C  0.38303525  0.56786925  0.97822348    -0.05900
C2954       C  0.40364028  0.56210699  0.99056261    -0.33300
C2955       C  0.40388384  0.56040571  0.01471700     0.35900
C2956       C  0.38336914  0.56568711  0.02721286    -0.06300
C2957       C  0.36252930  0.56683864  0.01491947    -0.33200
C2958       C  0.36222120  0.56745453  0.99065411     0.35800
H2959       H  0.41983108  0.56067552  0.98148854     0.16200
O2960       O  0.42447873  0.55566456  0.02594154    -0.60700
H2961       H  0.34646756  0.57017266  0.02407490     0.16200
O2962       O  0.34157915  0.57147523  0.97945906    -0.60800
H2963       H  0.33557759  0.54184840  0.97817298     0.43200
H2964       H  0.42551920  0.52470467  0.02969505     0.43200
C2965       C  0.22953990  0.60382019  0.87069124    -0.05900
C2966       C  0.24147166  0.60467176  0.89184045    -0.33300
C2967       C  0.26546129  0.60070256  0.89257473     0.35900
C2968       C  0.27792044  0.59521920  0.87197320    -0.06300
C2969       C  0.26600828  0.59463625  0.85093998    -0.33200
C2970       C  0.24225095  0.59920524  0.85011239     0.35800
H2971       H  0.23219227  0.60764066  0.90790899     0.16200
O2972       O  0.27653003  0.60331685  0.91344087    -0.60700
H2973       H  0.27525238  0.59135935  0.83485589     0.16200
O2974       O  0.23166674  0.59858157  0.82894131    -0.60800
H2975       H  0.23140932  0.62886402  0.82373971     0.43200
H2976       H  0.28094504  0.63385474  0.91502538     0.43200
C2977       C  0.37444313  0.72940695  0.78124268    -0.05900
C2978       C  0.39513903  0.73238153  0.76899175    -0.33300
C2979       C  0.39518498  0.73930581  0.74505361     0.35900
C2980       C  0.37428307  0.74369735  0.73291564    -0.06300
C2981       C  0.35368074  0.74279426  0.74538501    -0.33200
C2982       C  0.35360240  0.73546496  0.76919661     0.35800
H2983       H  0.41137371  0.72808721  0.77784979     0.16200
O2984       O  0.41576401  0.74332330  0.73387646    -0.60700
H2985       H  0.33741216  0.74712980  0.73659032     0.16200
O2986       O  0.33301207  0.73498472  0.78058634    -0.60800
H2987       H  0.32616643  0.70659275  0.77720018     0.43200
H2988       H  0.42180751  0.71374823  0.73258623     0.43200
C2989       C  0.38610576  0.07104187  0.97821057    -0.05900
C2990       C  0.40693237  0.06397104  0.98990685    -0.33300
C2991       C  0.40769435  0.06154350  0.01401729     0.35900
C2992       C  0.38739196  0.06607400  0.02688807    -0.06300
C2993       C  0.36634366  0.06894960  0.01511364    -0.33200
C2994       C  0.36556099  0.07138083  0.99100423     0.35800
H2995       H  0.42287213  0.06235576  0.98040254     0.16200
O2996       O  0.42843246  0.05584935  0.02487050    -0.60700
H2997       H  0.35050775  0.07262799  0.02462777     0.16200
O2998       O  0.34483015  0.07837161  0.98040002    -0.60800
H2999       H  0.33766468  0.04966507  0.97912429     0.43200
H3000       H  0.43611539  0.08417634  0.02424169     0.43200
C3001       C  0.38349719  0.84828621  0.88330674    -0.05900
C3002       C  0.39754872  0.87051497  0.86776600    -0.33300
C3003       C  0.39725392  0.91525873  0.86650736     0.35900
C3004       C  0.38259441  0.93936714  0.88100468    -0.06300
C3005       C  0.36887325  0.91718137  0.89690353    -0.33200
C3006       C  0.36929371  0.87235283  0.89825987     0.35800
H3007       H  0.40880617  0.85321251  0.85625766     0.16200
O3008       O  0.41156615  0.93484983  0.85098864    -0.60700
H3009       H  0.35766777  0.93457325  0.90842114     0.16200
O3010       O  0.35530492  0.85262619  0.91402274    -0.60800
H3011       H  0.36455627  0.85071252  0.92838005     0.43200
H3012       H  0.40312050  0.93451087  0.83611095     0.43200
C3013       C  0.37933314  0.34899942  0.87601707    -0.05900
C3014       C  0.38973806  0.37111526  0.85775969    -0.33300
C3015       C  0.38841912  0.41577194  0.85615230     0.35900
C3016       C  0.37656880  0.43961638  0.87312910    -0.06300
C3017       C  0.36582685  0.41741260  0.89114967    -0.33200
C3018       C  0.36728395  0.37285846  0.89285833     0.35800
H3019       H  0.39892241  0.35379022  0.84452948     0.16200
O3020       O  0.39916328  0.43560692  0.83802110    -0.60700
H3021       H  0.35676606  0.43466757  0.90449450     0.16200
O3022       O  0.35704847  0.35325864  0.91136476    -0.60800
H3023       H  0.36911505  0.35183144  0.92344689     0.43200
H3024       H  0.38749973  0.43689624  0.82554727     0.43200
C3025       C  0.23142202  0.09999914  0.87116399    -0.05900
C3026       C  0.24356537  0.09046388  0.85088098    -0.33300
C3027       C  0.26729172  0.08560927  0.85105183     0.35900
C3028       C  0.27971392  0.09041760  0.87173673    -0.06300
C3029       C  0.26783856  0.10059077  0.89204740    -0.33200
C3030       C  0.24390732  0.10579641  0.89185623     0.35800
H3031       H  0.23460583  0.08598310  0.83466135     0.16200
O3032       O  0.27822768  0.07672462  0.83070204    -0.60700
H3033       H  0.27720692  0.10594043  0.90795732     0.16200
O3034       O  0.23297860  0.11536154  0.91208788    -0.60800
H3035       H  0.23250579  0.14710017  0.91262782     0.43200
H3036       H  0.28089522  0.04536223  0.83095829     0.43200
C3037       C  0.37454830  0.21654469  0.77714877    -0.05900
C3038       C  0.39532993  0.22424196  0.76558548    -0.33300
C3039       C  0.39585542  0.23064691  0.74157205     0.35900
C3040       C  0.37537207  0.22941720  0.72852454    -0.06300
C3041       C  0.35460279  0.22241236  0.74012873    -0.33200
C3042       C  0.35404058  0.21578088  0.76402753     0.35800
H3043       H  0.41133934  0.22473466  0.77511963     0.16200
O3044       O  0.41645605  0.23903265  0.73116460    -0.60700
H3045       H  0.33857370  0.22215575  0.73060894     0.16200
O3046       O  0.33317329  0.20982529  0.77442415    -0.60800
H3047       H  0.32919298  0.17938349  0.77163484     0.43200
H3048       H  0.41832011  0.27056646  0.73201424     0.43200
C3049       C  0.62344206  0.57043740  0.47752298    -0.05900
C3050       C  0.60255762  0.56776223  0.48940574    -0.33300
C3051       C  0.60187995  0.56839237  0.51352496     0.35900
C3052       C  0.62236791  0.57211349  0.52643632    -0.06300
C3053       C  0.64340066  0.57059471  0.51462821    -0.33200
C3054       C  0.64406121  0.56951123  0.49039942     0.35800
H3055       H  0.58650192  0.56704173  0.47994095     0.16200
O3056       O  0.58100195  0.56589940  0.52430093    -0.60700
H3057       H  0.65940872  0.57293817  0.52408537     0.16200
O3058       O  0.66492062  0.57140410  0.47960239    -0.60800
H3059       H  0.66947922  0.54111437  0.47732962     0.43200
H3060       H  0.57376582  0.59435539  0.52200735     0.43200
C3061       C  0.72750348  0.58998270  0.63458175    -0.05900
C3062       C  0.73969114  0.59520504  0.61392365    -0.33300
C3063       C  0.76370860  0.59765146  0.61396858     0.35900
C3064       C  0.77601274  0.59403293  0.63490383    -0.06300
C3065       C  0.76369205  0.58853377  0.65551548    -0.33200
C3066       C  0.73976365  0.58673765  0.65550340     0.35800
H3067       H  0.73055119  0.59865503  0.59771664     0.16200
O3068       O  0.77492696  0.60174397  0.59334238    -0.60700
H3069       H  0.77264573  0.58503916  0.67182612     0.16200
O3070       O  0.72851923  0.58050905  0.67600511    -0.60800
H3071       H  0.72920367  0.60848520  0.68403863     0.43200
H3072       H  0.77465976  0.63284226  0.58980738     0.43200
C3073       C  0.47678873  0.72583349  0.62332539    -0.05900
C3074       C  0.48738927  0.71781235  0.60204320    -0.33300
C3075       C  0.51059666  0.70675431  0.60086648     0.35900
C3076       C  0.52389029  0.70425605  0.62120510    -0.06300
C3077       C  0.51325996  0.71201699  0.64251667    -0.33200
C3078       C  0.48996832  0.72254755  0.64371183     0.35800
H3079       H  0.47765212  0.72020881  0.58613533     0.16200
O3080       O  0.52027992  0.70031327  0.57963191    -0.60700
H3081       H  0.52303478  0.70989629  0.65840949     0.16200
O3082       O  0.48047752  0.73043235  0.66488752    -0.60800
H3083       H  0.48160255  0.76188020  0.66696876     0.43200
H3084       H  0.51661434  0.67020878  0.57563509     0.43200
C3085       C  0.62316492  0.07757841  0.52712146    -0.05900
C3086       C  0.64402982  0.07806871  0.51506938    -0.33300
C3087       C  0.64435675  0.07740753  0.49084988     0.35900
C3088       C  0.62357862  0.07570215  0.47826885    -0.06300
C3089       C  0.60290201  0.07180809  0.49043561    -0.33200
C3090       C  0.60256790  0.07245742  0.51453345     0.35800
H3091       H  0.66006361  0.08191888  0.52433750     0.16200
O3092       O  0.66496972  0.08153441  0.47974531    -0.60700
H3093       H  0.58674549  0.07002379  0.48118879     0.16200
O3094       O  0.58182022  0.07002776  0.52554327    -0.60800
H3095       H  0.58022032  0.03958115  0.53018872     0.43200
H3096       H  0.66709965  0.11278375  0.47746221     0.43200
C3097       C  0.62543904  0.93969416  0.62768066    -0.05900
C3098       C  0.62998623  0.91820248  0.60701260    -0.33300
C3099       C  0.62818976  0.87355852  0.60566527     0.35900
C3100       C  0.62219642  0.84917496  0.62537831    -0.06300
C3101       C  0.61759209  0.87073611  0.64605201    -0.33200
C3102       C  0.61929295  0.91543739  0.64735265     0.35800
H3103       H  0.63436487  0.93617000  0.59162398     0.16200
O3104       O  0.63213970  0.85422936  0.58484106    -0.60700
H3105       H  0.61322221  0.85284126  0.66146605     0.16200
O3106       O  0.61521743  0.93499926  0.66808785    -0.60800
H3107       H  0.63050203  0.93789503  0.67548474     0.43200
H3108       H  0.61671467  0.84905981  0.57813605     0.43200
C3109       C  0.62928056  0.34877853  0.62988089    -0.05900
C3110       C  0.60873116  0.37096771  0.63340456    -0.33300
C3111       C  0.60798704  0.41566300  0.63207977     0.35900
C3112       C  0.62818414  0.43944036  0.62761005    -0.06300
C3113       C  0.64879203  0.41725026  0.62413541    -0.33200
C3114       C  0.64948693  0.37241092  0.62530753     0.35800
H3115       H  0.59296692  0.35354876  0.63655114     0.16200
O3116       O  0.58723476  0.43565614  0.63482878    -0.60700
H3117       H  0.66451746  0.43471096  0.62088302     0.16200
O3118       O  0.67008288  0.35210746  0.62208039    -0.60800
H3119       H  0.67639091  0.34748394  0.63780156     0.43200
H3120       H  0.58131683  0.44034395  0.61895901     0.43200
C3121       C  0.77573698  0.09518098  0.63463434    -0.05900
C3122       C  0.76408071  0.09085790  0.65571321    -0.33300
C3123       C  0.74029218  0.08607257  0.65645393     0.35900
C3124       C  0.72732430  0.08613745  0.63587120    -0.06300
C3125       C  0.73884117  0.09075444  0.61474721    -0.33200
C3126       C  0.76278386  0.09519214  0.61399201     0.35800
H3127       H  0.77349530  0.09027499  0.67186049     0.16200
O3128       O  0.72987996  0.08169627  0.67751617    -0.60700
H3129       H  0.72921987  0.09204920  0.59873581     0.16200
O3130       O  0.77325562  0.09898377  0.59295096    -0.60800
H3131       H  0.77578342  0.06916845  0.58768867     0.43200
H3132       H  0.73078882  0.05070340  0.68120285     0.43200
C3133       C  0.52665916  0.21207680  0.62077110    -0.05900
C3134       C  0.51532724  0.21960956  0.59970576    -0.33300
C3135       C  0.49199465  0.23000191  0.59910371     0.35900
C3136       C  0.47948064  0.23295909  0.61983875    -0.06300
C3137       C  0.49070442  0.22429911  0.64082315    -0.33200
C3138       C  0.51402845  0.21396868  0.64141066     0.35800
H3139       H  0.52464739  0.21783603  0.58360028     0.16200
O3140       O  0.48167737  0.23715119  0.57813472    -0.60700
H3141       H  0.48147437  0.22617919  0.65697123     0.16200
O3142       O  0.52423886  0.20545685  0.66227616    -0.60800
H3143       H  0.52037153  0.17519019  0.66576405     0.43200
H3144       H  0.47425874  0.20960262  0.57403945     0.43200
C3145       C  0.62612380  0.86292116  0.97689351    -0.05900
C3146       C  0.60527970  0.87157450  0.98810274    -0.33300
C3147       C  0.60387276  0.87191094  0.01219616     0.35900
C3148       C  0.62365489  0.86470339  0.02567587    -0.06300
C3149       C  0.64482671  0.85924157  0.01448684    -0.33200
C3150       C  0.64614792  0.85795049  0.99033867     0.35800
H3151       H  0.58968136  0.87596656  0.97815289     0.16200
O3152       O  0.58296895  0.87843858  0.02239128    -0.60700
H3153       H  0.66019817  0.85286780  0.02448035     0.16200
O3154       O  0.66664168  0.84758448  0.98026388    -0.60800
H3155       H  0.67453736  0.87532172  0.97774560     0.43200
H3156       H  0.57477868  0.85068348  0.02111591     0.43200
C3157       C  0.73211843  0.84379346  0.87004981    -0.05900
C3158       C  0.74385708  0.84305892  0.89129831    -0.33300
C3159       C  0.76783003  0.83807323  0.89222992     0.35900
C3160       C  0.78054356  0.83390522  0.87167088    -0.06300
C3161       C  0.76870242  0.83431859  0.85052717    -0.33200
C3162       C  0.74495622  0.83959407  0.84955932     0.35800
H3163       H  0.73440634  0.84551447  0.90729162     0.16200
O3164       O  0.77869667  0.83961852  0.91322666    -0.60700
H3165       H  0.77801498  0.83178231  0.83444506     0.16200
O3166       O  0.73450914  0.84070934  0.82832082    -0.60800
H3167       H  0.73296705  0.87156178  0.82449799     0.43200
H3168       H  0.77743834  0.81021699  0.91961996     0.43200
C3169       C  0.52887577  0.72693479  0.88528832    -0.05900
C3170       C  0.51264650  0.75541888  0.89456916    -0.33300
C3171       C  0.48928713  0.74499252  0.89492849     0.35900
C3172       C  0.48188522  0.70522724  0.88647143    -0.06300
C3173       C  0.49799413  0.67618855  0.87782114    -0.33200
C3174       C  0.52132049  0.68693181  0.87692428     0.35800
H3175       H  0.51800756  0.78628362  0.90116886     0.16200
O3176       O  0.47386587  0.77345212  0.90399900    -0.60700
H3177       H  0.49241207  0.64528338  0.87145708     0.16200
O3178       O  0.53664479  0.65754036  0.86858729    -0.60800
H3179       H  0.53558800  0.66003337  0.85156025     0.43200
H3180       H  0.47024122  0.79360139  0.89124082     0.43200
C3181       C  0.63224481  0.72483398  0.77580138    -0.05900
C3182       C  0.61124161  0.72651163  0.76382969    -0.33300
C3183       C  0.61038413  0.72271527  0.73968175     0.35900
C3184       C  0.63074036  0.71614107  0.72702115    -0.06300
C3185       C  0.65166876  0.71418047  0.73916454    -0.33200
C3186       C  0.65256034  0.71869504  0.76313343     0.35800
H3187       H  0.59544200  0.73190827  0.77315538     0.16200
O3188       O  0.58947412  0.72420059  0.72882916    -0.60700
H3189       H  0.66761098  0.70880845  0.73008167     0.16200
O3190       O  0.67340339  0.71567984  0.77409219    -0.60800
H3191       H  0.68090705  0.74384064  0.77164713     0.43200
H3192       H  0.58665758  0.75502188  0.72574395     0.43200
C3193       C  0.62612464  0.36841774  0.97774923    -0.05900
C3194       C  0.60513641  0.37372812  0.98924096    -0.33300
C3195       C  0.60408136  0.37496489  0.01329589     0.35900
C3196       C  0.62428392  0.37115393  0.02657514    -0.06300
C3197       C  0.64551843  0.37012554  0.01510055    -0.33200
C3198       C  0.64656394  0.36859647  0.99089745     0.35800
H3199       H  0.58920171  0.37466664  0.97957592     0.16200
O3200       O  0.58299918  0.37720106  0.02363373    -0.60700
H3201       H  0.66130397  0.36713538  0.02489080     0.16200
O3202       O  0.66745751  0.36301318  0.98055617    -0.60800
H3203       H  0.67330220  0.39236824  0.97768754     0.43200
H3204       H  0.57952166  0.40821427  0.02466713     0.43200
C3205       C  0.63260280  0.49945405  0.87223116    -0.05900
C3206       C  0.64385824  0.52109152  0.89013181    -0.33300
C3207       C  0.64340751  0.56572807  0.89147572     0.35900
C3208       C  0.63163998  0.59019329  0.87452641    -0.06300
C3209       C  0.62102724  0.56859842  0.85616433    -0.33200
C3210       C  0.62159505  0.52384843  0.85478298     0.35800
H3211       H  0.65254734  0.50336589  0.90367680     0.16200
O3212       O  0.65433853  0.58482067  0.90973844    -0.60700
H3213       H  0.61225158  0.58640539  0.84270991     0.16200
O3214       O  0.61112784  0.50448487  0.83633274    -0.60800
H3215       H  0.62349307  0.50013456  0.82487484     0.43200
H3216       H  0.64278056  0.58571626  0.92223440     0.43200
C3217       C  0.62906791  0.09046508  0.87996206    -0.05900
C3218       C  0.62131555  0.06928619  0.86010515    -0.33300
C3219       C  0.62262621  0.02464629  0.85826271     0.35900
C3220       C  0.63192492  0.99979255  0.87650885    -0.06300
C3221       C  0.63967432  0.02096418  0.89639869    -0.33200
C3222       C  0.63801950  0.06561266  0.89837849     0.35800
H3223       H  0.61438914  0.08739792  0.84571008     0.16200
O3224       O  0.61456992  0.00575942  0.83850049    -0.60700
H3225       H  0.64642010  0.00276616  0.91084850     0.16200
O3226       O  0.64487589  0.08440133  0.91861619    -0.60800
H3227       H  0.63108640  0.08415322  0.92858638     0.43200
H3228       H  0.62735894  0.00775898  0.82732427     0.43200
C3229       C  0.73089987  0.34694686  0.87182937    -0.05900
C3230       C  0.74285419  0.34168567  0.89276426    -0.33300
C3231       C  0.76681694  0.33668478  0.89307001     0.35900
C3232       C  0.77924047  0.33722750  0.87220465    -0.06300
C3233       C  0.76711020  0.34224397  0.85136643    -0.33200
C3234       C  0.74338533  0.34745768  0.85106238     0.35800
H3235       H  0.73355719  0.34029595  0.90889520     0.16200
O3236       O  0.77789693  0.33304811  0.91388177    -0.60700
H3237       H  0.77612947  0.34315808  0.83506205     0.16200
O3238       O  0.73254247  0.35285993  0.83020909    -0.60800
H3239       H  0.73118734  0.38430032  0.82813487     0.43200
H3240       H  0.77845721  0.30185968  0.91713030     0.43200
C3241       C  0.52831304  0.23295731  0.88374090    -0.05900
C3242       C  0.52095641  0.19660168  0.89568051    -0.33300
C3243       C  0.49778959  0.18530143  0.89579934     0.35900
C3244       C  0.48157234  0.21067035  0.88375529    -0.06300
C3245       C  0.48920765  0.24682047  0.87143869    -0.33200
C3246       C  0.51242671  0.25815637  0.87152129     0.35800
H3247       H  0.53324445  0.17683939  0.90489841     0.16200
O3248       O  0.49136992  0.14846221  0.90700205    -0.60700
H3249       H  0.47714149  0.26669790  0.86201416     0.16200
O3250       O  0.51947917  0.29374749  0.85955926    -0.60800
H3251       H  0.51868457  0.31759479  0.87078599     0.43200
H3252       H  0.48977202  0.15665881  0.92343039     0.43200
C3253       C  0.63223818  0.22314739  0.77797904    -0.05900
C3254       C  0.65266512  0.22471910  0.76519094    -0.33300
C3255       C  0.65257618  0.21951556  0.74125350     0.35900
C3256       C  0.63174597  0.21326841  0.72930192    -0.06300
C3257       C  0.61121985  0.21222751  0.74190020    -0.33200
C3258       C  0.61134695  0.21659355  0.76602509     0.35800
H3259       H  0.66895399  0.23015199  0.77374617     0.16200
O3260       O  0.67297440  0.22188134  0.72958335    -0.60700
H3261       H  0.59505561  0.20680454  0.73310344     0.16200
O3262       O  0.59086690  0.21575396  0.77755364    -0.60800
H3263       H  0.58743007  0.18494386  0.77993229     0.43200
H3264       H  0.68063129  0.19395348  0.73234942     0.43200
loop_ 
_geom_bond_atom_site_label_1 
_geom_bond_atom_site_label_2 
_geom_bond_distance 
_geom_bond_site_symmetry_2 
_ccdc_geom_bond_type 
Zr1           O2   2.441       .  S
Zr1           O3   2.457       .  S
Zr1           O4   2.464       .  S
Zr1           O7   2.432       .  S
Zr1           O9   2.373       .  S
Zr1          O10   2.391       .  S
Zr1          O11   2.409       .  S
Zr1          O12   2.409       .  S
O2           H58   0.990       .  S
O2           H66   0.990       .  S
O3           C23   1.288       .  A
O4           C25   1.289       .  A
O5          Zr15   2.420       .  S
O5           C24   1.282       .  A
O6          Zr14   2.421       .  S
O6           C25   1.283       .  A
O7           C24   1.283       .  A
O8          Zr16   2.401       .  S
O8           C23   1.277       .  A
O9          Zr14   2.394       .  S
O9          Zr16   2.387       .  S
O10         Zr15   2.396       .  S
O10         Zr16   2.374       .  S
O10          H45   0.966       .  S
O11         Zr14   2.393       .  S
O11         Zr31   2.376       .  S
O11          H48   0.964       .  S
O12         Zr15   2.389       .  S
O12         Zr31   2.386       .  S
Zr13         O38   2.442       .  S
Zr13         O32   2.453       .  S
Zr13         O40   2.454       .  S
Zr13         O28   2.474       .  S
Zr13         O19   2.409       .  S
Zr13         O20   2.412       .  S
Zr13         O21   2.383       .  S
Zr13         O22   2.393       .  S
Zr14         O33   2.435       .  S
Zr14         O26   2.434       .  S
Zr14         O27   2.407       .  S
Zr14         O20   2.400       .  S
Zr14         O21   2.393       .  S
Zr15         O17   2.436       .  S
Zr15         O39   2.437       .  S
Zr15         O41   2.421       .  S
Zr15         O19   2.387       .  S
Zr15         O22   2.393       .  S
Zr16         O42   2.436       .  S
Zr16         O43   2.437       .  S
Zr16         O18   2.437       .  S
Zr16         O19   2.390       .  S
Zr16         O20   2.373       .  S
O17          H54   0.990       .  S
O18          H49   0.990       .  S
O18          H63   0.990       .  S
O20          H46   0.963       .  S
O21         Zr31   2.388       .  S
O22         Zr31   2.380       .  S
O22          H47   0.967       .  S
C23        C3217   1.490       .  S
C24        C3241   1.460       .  S
C25        C3253   1.490       .  S
O26          H62   0.990       .  S
O27          C29   1.281       .  A
O28          C29   1.291       .  A
C29        C3229   1.481       .  S
O30         Zr31   2.439       .  S
O30          H59   0.990       .  S
Zr31         O34   2.437       .  S
Zr31         O35   2.440       .  S
Zr31         O36   2.393       .  S
O32          C37   1.287       .  A
O33          H50   0.990       .  S
O33          H65   0.990       .  S
O34          H51   0.990       .  S
O35          H55   0.990       .  S
O35          H64   0.990       .  S
O36          C37   1.276       .  A
C37        C3205   1.486       .  S
O38          H57   0.990       .  S
O38          H61   0.990       .  S
O39          H53   0.990       .  S
O39          H60   0.990       .  S
O40          C44   1.288       .  A
O41          C44   1.284       .  A
O42          H52   0.990       .  S
O43          H56   0.990       .  S
C44        C3193   1.488       .  S
Zr67         O68   2.441       .  S
Zr67         O69   2.459       .  S
Zr67         O70   2.468       .  S
Zr67         O73   2.449       .  S
Zr67         O75   2.377       .  S
Zr67         O76   2.388       .  S
Zr67         O77   2.414       .  S
Zr67         O78   2.411       .  S
O68         H124   0.991       .  S
O68         H132   0.990       .  S
O69          C89   1.288       .  A
O70          C91   1.289       .  A
O71         Zr81   2.413       .  S
O71          C90   1.282       .  A
O72         Zr80   2.420       .  S
O72          C91   1.282       .  A
O73          C90   1.288       .  A
O74         Zr82   2.389       .  S
O74          C89   1.275       .  A
O75         Zr80   2.396       .  S
O75         Zr82   2.388       .  S
O76         Zr81   2.393       .  S
O76         Zr82   2.373       .  S
O76         H111   0.966       .  S
O77         Zr80   2.395       .  S
O77         Zr97   2.383       .  S
O77         H114   0.964       .  S
O78         Zr81   2.386       .  S
O78         Zr97   2.392       .  S
Zr79        O104   2.441       .  S
Zr79         O98   2.459       .  S
Zr79        O106   2.460       .  S
Zr79         O94   2.486       .  S
Zr79         O85   2.407       .  S
Zr79         O86   2.412       .  S
Zr79         O87   2.389       .  S
Zr79         O88   2.394       .  S
Zr80         O99   2.435       .  S
Zr80         O92   2.436       .  S
Zr80         O93   2.406       .  S
Zr80         O86   2.401       .  S
Zr80         O87   2.397       .  S
Zr81         O83   2.435       .  S
Zr81        O105   2.436       .  S
Zr81        O107   2.410       .  S
Zr81         O85   2.390       .  S
Zr81         O88   2.389       .  S
Zr82        O108   2.435       .  S
Zr82        O109   2.437       .  S
Zr82         O84   2.438       .  S
Zr82         O85   2.384       .  S
Zr82         O86   2.368       .  S
O83         H120   0.990       .  S
O84         H115   0.990       .  S
O84         H129   0.990       .  S
O86         H112   0.964       .  S
O87         Zr97   2.388       .  S
O88         Zr97   2.373       .  S
O88         H113   0.967       .  S
C89        C3208   1.489       .  S
C90        C3169   1.484       .  S
C91        C3181   1.486       .  S
O92         H128   0.990       .  S
O93          C95   1.281       .  A
O94          C95   1.294       .  A
C95        C3157   1.488       .  S
O96         Zr97   2.440       .  S
O96         H125   0.991       .  S
Zr97        O100   2.438       .  S
Zr97        O101   2.440       .  S
Zr97        O102   2.406       .  S
O98         C103   1.289       .  A
O99         H116   0.990       .  S
O99         H131   0.990       .  S
O100        H117   0.990       .  S
O101        H121   0.990       .  S
O101        H130   0.990       .  S
O102        C103   1.278       .  A
C103       C3220   1.491       .  S
O104        H123   0.991       .  S
O104        H127   0.990       .  S
O105        H119   0.990       .  S
O105        H126   0.990       .  S
O106        C110   1.290       .  A
O107        C110   1.281       .  A
O108        H118   0.990       .  S
O109        H122   0.990       .  S
C110       C3145   1.485       .  S
Zr133       O134   2.441       .  S
Zr133       O135   2.460       .  S
Zr133       O136   2.469       .  S
Zr133       O139   2.446       .  S
Zr133       O141   2.380       .  S
Zr133       O142   2.391       .  S
Zr133       O143   2.413       .  S
Zr133       O144   2.406       .  S
O134        H190   0.990       .  S
O134        H198   0.991       .  S
O135        C155   1.289       .  A
O136        C157   1.289       .  A
O137       Zr147   2.413       .  S
O137        C156   1.281       .  A
O138       Zr146   2.411       .  S
O138        C157   1.280       .  A
O139        C156   1.287       .  A
O140       Zr148   2.394       .  S
O140        C155   1.276       .  A
O141       Zr146   2.397       .  S
O141       Zr148   2.389       .  S
O142       Zr147   2.390       .  S
O142       Zr148   2.374       .  S
O142        H177   0.966       .  S
O143       Zr146   2.393       .  S
O143       Zr163   2.387       .  S
O143        H180   0.964       .  S
O144       Zr147   2.386       .  S
O144       Zr163   2.384       .  S
Zr145       O170   2.442       .  S
Zr145       O164   2.460       .  S
Zr145       O172   2.454       .  S
Zr145       O160   2.473       .  S
Zr145       O151   2.410       .  S
Zr145       O152   2.413       .  S
Zr145       O153   2.386       .  S
Zr145       O154   2.392       .  S
Zr146       O165   2.435       .  S
Zr146       O158   2.436       .  S
Zr146       O159   2.406       .  S
Zr146       O152   2.398       .  S
Zr146       O153   2.392       .  S
Zr147       O149   2.435       .  S
Zr147       O171   2.439       .  S
Zr147       O173   2.413       .  S
Zr147       O151   2.387       .  S
Zr147       O154   2.394       .  S
Zr148       O174   2.435       .  S
Zr148       O175   2.436       .  S
Zr148       O150   2.437       .  S
Zr148       O151   2.390       .  S
Zr148       O152   2.367       .  S
O149        H186   0.990       .  S
O150        H181   0.990       .  S
O150        H195   0.990       .  S
O152        H178   0.962       .  S
O153       Zr163   2.388       .  S
O154       Zr163   2.379       .  S
O154        H179   0.967       .  S
C155       C3109   1.483       .  S
C156       C3133   1.480       .  S
C157       C3256   1.484       .  S
O158        H194   0.990       .  S
O159        C161   1.280       .  A
O160        C161   1.291       .  A
C161       C3124   1.482       .  S
O162       Zr163   2.439       .  S
O162        H191   0.990       .  S
Zr163       O166   2.437       .  S
Zr163       O167   2.440       .  S
Zr163       O168   2.401       .  S
O164        C169   1.289   1_545  A
O165        H182   0.990       .  S
O165        H197   0.990       .  S
O166        H183   0.990       .  S
O167        H187   0.990       .  S
O167        H196   0.990       .  S
O168        C169   1.278   1_545  A
C169       C3097   1.484       .  S
O170        H189   0.991       .  S
O170        H193   0.990       .  S
O171        H185   0.990       .  S
O171        H192   0.990       .  S
O172        C176   1.288       .  A
O173        C176   1.281       .  A
O174        H184   0.990       .  S
O175        H188   0.990       .  S
C176       C3085   1.485       .  S
Zr199       O200   2.441       .  S
Zr199       O201   2.456       .  S
Zr199       O202   2.470       .  S
Zr199       O205   2.437       .  S
Zr199       O207   2.376       .  S
Zr199       O208   2.393       .  S
Zr199       O209   2.409       .  S
Zr199       O210   2.406       .  S
O200        H256   0.990       .  S
O200        H264   0.990       .  S
O201        C221   1.288       .  A
O202        C223   1.289       .  A
O203       Zr213   2.422       .  S
O203        C222   1.283       .  A
O204       Zr212   2.414       .  S
O204        C223   1.281       .  A
O205        C222   1.286       .  A
O206       Zr214   2.402       .  S
O206        C221   1.278       .  A
O207       Zr212   2.391       .  S
O207       Zr214   2.387       .  S
O208       Zr213   2.396       .  S
O208       Zr214   2.375       .  S
O208        H243   0.966       .  S
O209       Zr212   2.395       .  S
O209       Zr229   2.382       .  S
O209        H246   0.964       .  S
O210       Zr213   2.390       .  S
O210       Zr229   2.385       .  S
Zr211       O236   2.442       .  S
Zr211       O230   2.467       .  S
Zr211       O238   2.454       .  S
Zr211       O226   2.466       .  S
Zr211       O217   2.410       .  S
Zr211       O218   2.415       .  S
Zr211       O219   2.384       .  S
Zr211       O220   2.389       .  S
Zr212       O231   2.437       .  S
Zr212       O224   2.436       .  S
Zr212       O225   2.400       .  S
Zr212       O218   2.399       .  S
Zr212       O219   2.401       .  S
Zr213       O215   2.436       .  S
Zr213       O237   2.436       .  S
Zr213       O239   2.425       .  S
Zr213       O217   2.387       .  S
Zr213       O220   2.391       .  S
Zr214       O240   2.438       .  S
Zr214       O241   2.436       .  S
Zr214       O216   2.437       .  S
Zr214       O217   2.389       .  S
Zr214       O218   2.383       .  S
O215        H252   0.990       .  S
O216        H247   0.990       .  S
O216        H261   0.990       .  S
O218        H244   0.965       .  S
O219       Zr229   2.387       .  S
O220       Zr229   2.376       .  S
O220        H245   0.966       .  S
C221       C3100   1.487       .  S
C222       C3076   1.483       .  S
C223       C3184   1.492       .  S
O224        H260   0.990       .  S
O225        C227   1.278       .  A
O226        C227   1.289       .  A
C227       C3061   1.477       .  S
O228       Zr229   2.438       .  S
O228        H257   0.991       .  S
Zr229       O232   2.438       .  S
Zr229       O233   2.440       .  S
Zr229       O234   2.395       .  S
O230        C235   1.290       .  A
O231        H248   0.990       .  S
O231        H263   0.991       .  S
O232        H249   0.990       .  S
O233        H253   0.990       .  S
O233        H262   0.990       .  S
O234        C235   1.277       .  A
C235       C3112   1.486       .  S
O236        H255   0.991       .  S
O236        H259   0.990       .  S
O237        H251   0.990       .  S
O237        H258   0.990       .  S
O238        C242   1.288       .  A
O239        C242   1.284       .  A
O240        H250   0.990       .  S
O241        H254   0.990       .  S
C242       C3052   1.491       .  S
Zr265       O266   2.442       .  S
Zr265       O267   2.458       .  S
Zr265       O268   2.474       .  S
Zr265       O271   2.436       .  S
Zr265       O273   2.374       .  S
Zr265       O274   2.396       .  S
Zr265       O275   2.408       .  S
Zr265       O276   2.410       .  S
O266        H322   0.990       .  S
O266        H330   0.991       .  S
O267        C287   1.289       .  A
O268        C289   1.290       .  A
O269       Zr279   2.413       .  S
O269        C288   1.282       .  A
O270       Zr278   2.413       .  S
O270        C289   1.280       .  A
O271        C288   1.286       .  A
O272       Zr280   2.387       .  S
O272        C287   1.274       .  A
O273       Zr278   2.389       .  S
O273       Zr280   2.388       .  S
O274       Zr279   2.394       .  S
O274       Zr280   2.372       .  S
O274        H309   0.966       .  S
O275       Zr278   2.391       .  S
O275       Zr295   2.386       .  S
O275        H312   0.964       .  S
O276       Zr279   2.391       .  S
O276       Zr295   2.384       .  S
Zr277       O302   2.442       .  S
Zr277       O296   2.464       .  S
Zr277       O304   2.441       .  S
Zr277       O292   2.473       .  S
Zr277       O283   2.409       .  S
Zr277       O284   2.412       .  S
Zr277       O285   2.383       .  S
Zr277       O286   2.388       .  S
Zr278       O297   2.436       .  S
Zr278       O290   2.436       .  S
Zr278       O291   2.396       .  S
Zr278       O284   2.398       .  S
Zr278       O285   2.398       .  S
Zr279       O281   2.437       .  S
Zr279       O303   2.437       .  S
Zr279       O305   2.426       .  S
Zr279       O283   2.386       .  S
Zr279       O286   2.389       .  S
Zr280       O306   2.435       .  S
Zr280       O307   2.436       .  S
Zr280       O282   2.437       .  S
Zr280       O283   2.385       .  S
Zr280       O284   2.372       .  S
O281        H318   0.990       .  S
O282        H313   0.990       .  S
O282        H327   0.990       .  S
O284        H310   0.964       .  S
O285       Zr295   2.386       .  S
O286       Zr295   2.374       .  S
O286        H311   0.966       .  S
C287       C3013   1.488       .  S
C288       C3244   1.480       .  S
C289       C3037   1.494       .  S
O290        H326   0.990       .  S
O291        C293   1.278       .  A
O292        C293   1.290       .  A
C293       C3028   1.475       .  S
O294       Zr295   2.438       .  S
O294        H323   0.990       .  S
Zr295       O298   2.436       .  S
Zr295       O299   2.441       .  S
Zr295       O300   2.398       .  S
O296        C301   1.290   1_545  A
O297        H314   0.990       .  S
O297        H329   0.990       .  S
O298        H315   0.990       .  S
O299        H319   0.990       .  S
O299        H328   0.990       .  S
O300        C301   1.277   1_545  A
C301       C3004   1.494       .  S
O302        H321   0.991       .  S
O302        H325   0.990       .  S
O303        H317   0.990       .  S
O303        H324   0.990       .  S
O304        C308   1.286       .  A
O305        C308   1.284       .  A
O306        H316   0.990       .  S
O307        H320   0.990       .  S
C308       C2989   1.484       .  S
Zr331       O332   2.442       .  S
Zr331       O333   2.452       .  S
Zr331       O334   2.461       .  S
Zr331       O337   2.444       .  S
Zr331       O339   2.378       .  S
Zr331       O340   2.387       .  S
Zr331       O341   2.413       .  S
Zr331       O342   2.407       .  S
O332        H388   0.990       .  S
O332        H396   0.990       .  S
O333        C353   1.288       .  A
O334        C355   1.288       .  A
O335       Zr345   2.422       .  S
O335        C354   1.282       .  A
O336       Zr344   2.414       .  S
O336        C355   1.281       .  A
O337        C354   1.286       .  A
O338       Zr346   2.398       .  S
O338        C353   1.276       .  A
O339       Zr344   2.394       .  S
O339       Zr346   2.383       .  S
O340       Zr345   2.398       .  S
O340       Zr346   2.374       .  S
O340        H375   0.966       .  S
O341       Zr344   2.397       .  S
O341       Zr361   2.379       .  S
O341        H378   0.965       .  S
O342       Zr345   2.394       .  S
O342       Zr361   2.391       .  S
Zr343       O368   2.443       .  S
Zr343       O362   2.455       .  S
Zr343       O370   2.460       .  S
Zr343       O358   2.469       .  S
Zr343       O349   2.407       .  S
Zr343       O350   2.417       .  S
Zr343       O351   2.388       .  S
Zr343       O352   2.390       .  S
Zr344       O363   2.437       .  S
Zr344       O356   2.434       .  S
Zr344       O357   2.406       .  S
Zr344       O350   2.398       .  S
Zr344       O351   2.395       .  S
Zr345       O347   2.435       .  S
Zr345       O369   2.436       .  S
Zr345       O371   2.433       .  S
Zr345       O349   2.390       .  S
Zr345       O352   2.390       .  S
Zr346       O372   2.434       .  S
Zr346       O373   2.436       .  S
Zr346       O348   2.438       .  S
Zr346       O349   2.391       .  S
Zr346       O350   2.373       .  S
O347        H384   0.990       .  S
O348        H379   0.990       .  S
O348        H393   0.990       .  S
O350        H376   0.964       .  S
O351       Zr361   2.384       .  S
O352       Zr361   2.382       .  S
O352        H377   0.966       .  S
C353       C3001   1.492       .  S
C354       C3172   1.469       .  S
C355       C2977   1.485       .  S
O356        H392   0.990       .  S
O357        C359   1.281       .  A
O358        C359   1.289       .  A
C359       C2968   1.479       .  S
O360       Zr361   2.439       .  S
O360        H389   0.991       .  S
Zr361       O364   2.438       .  S
Zr361       O365   2.439       .  S
Zr361       O366   2.392       .  S
O362        C367   1.288       .  A
O363        H380   0.991       .  S
O363        H395   0.990       .  S
O364        H381   0.990       .  S
O365        H385   0.990       .  S
O365        H394   0.990       .  S
O366        C367   1.275       .  A
C367       C3016   1.487       .  S
O368        H387   0.990       .  S
O368        H391   0.991       .  S
O369        H383   0.990       .  S
O369        H390   0.990       .  S
O370        C374   1.289       .  A
O371        C374   1.286       .  A
O372        H382   0.990       .  S
O373        H386   0.990       .  S
C374       C2953   1.495       .  S
Zr397       O398   2.443       .  S
Zr397       O399   2.458       .  S
Zr397       O400   2.474       .  S
Zr397       O403   2.434       .  S
Zr397       O405   2.379       .  S
Zr397       O406   2.391       .  S
Zr397       O407   2.409       .  S
Zr397       O408   2.412       .  S
O398        H454   0.991       .  S
O398        H462   0.990       .  S
O399        C419   1.288       .  A
O400        C421   1.290       .  A
O401       Zr411   2.421       .  S
O401        C420   1.283       .  A
O402       Zr410   2.421       .  S
O402        C421   1.282       .  A
O403        C420   1.285       .  A
O404       Zr412   2.396       .  S
O404        C419   1.277       .  A
O405       Zr410   2.395       .  S
O405       Zr412   2.391       .  S
O406       Zr411   2.396       .  S
O406       Zr412   2.370       .  S
O406        H441   0.966       .  S
O407       Zr410   2.392       .  S
O407       Zr427   2.381       .  S
O407        H444   0.964       .  S
O408       Zr411   2.392       .  S
O408       Zr427   2.389       .  S
Zr409       O434   2.442       .  S
Zr409       O428   2.465       .  S
Zr409       O436   2.476       .  S
Zr409       O424   2.479       .  S
Zr409       O415   2.405       .  S
Zr409       O416   2.420       .  S
Zr409       O417   2.386       .  S
Zr409       O418   2.395       .  S
Zr410       O429   2.435       .  S
Zr410       O422   2.434       .  S
Zr410       O423   2.403       .  S
Zr410       O416   2.402       .  S
Zr410       O417   2.393       .  S
Zr411       O413   2.435       .  S
Zr411       O435   2.439       .  S
Zr411       O437   2.418       .  S
Zr411       O415   2.387       .  S
Zr411       O418   2.393       .  S
Zr412       O438   2.437       .  S
Zr412       O439   2.435       .  S
Zr412       O414   2.437       .  S
Zr412       O415   2.381       .  S
Zr412       O416   2.374       .  S
O413        H450   0.990       .  S
O414        H445   0.991       .  S
O414        H459   0.990       .  S
O416        H442   0.964       .  S
O417       Zr427   2.385       .  S
O418       Zr427   2.381       .  S
O418        H443   0.966       .  S
C419       C2932   1.485       .  S
C420       C3136   1.481       .  S
C421       C3040   1.489       .  S
O422        H458   0.990       .  S
O423        C425   1.280       .  A
O424        C425   1.292       .  A
C425       C2941   1.483       .  S
O426       Zr427   2.439       .  S
O426        H455   0.991       .  S
Zr427       O430   2.437       .  S
Zr427       O431   2.440       .  S
Zr427       O432   2.387       .  S
O428        C433   1.289       .  A
O429        H446   0.990       .  S
O429        H461   0.990       .  S
O430        H447   0.990       .  S
O431        H451   0.990       .  S
O431        H460   0.990       .  S
O432        C433   1.276       .  A
C433       C2917   1.492       .  S
O434        H453   0.990       .  S
O434        H457   0.990       .  S
O435        H449   0.990       .  S
O435        H456   0.990       .  S
O436        C440   1.292       .  A
O437        C440   1.283       .  A
O438        H448   0.990       .  S
O439        H452   0.990       .  S
C440       C2905   1.497       .  S
Zr463       O464   2.441       .  S
Zr463       O465   2.464       .  S
Zr463       O466   2.467       .  S
Zr463       O469   2.441       .  S
Zr463       O471   2.378       .  S
Zr463       O472   2.389       .  S
Zr463       O473   2.412       .  S
Zr463       O474   2.411       .  S
O464        H520   0.990       .  S
O464        H528   0.990       .  S
O465        C485   1.289       .  A
O466        C487   1.289       .  A
O467       Zr477   2.419       .  S
O467        C486   1.283       .  A
O468       Zr476   2.418       .  S
O468        C487   1.282       .  A
O469        C486   1.286       .  A
O470       Zr478   2.387       .  S
O470        C485   1.276       .  A
O471       Zr476   2.400       .  S
O471       Zr478   2.389       .  S
O472       Zr477   2.394       .  S
O472       Zr478   2.369       .  S
O472        H507   0.965       .  S
O473       Zr476   2.392       .  S
O473       Zr493   2.379       .  S
O473        H510   0.963       .  S
O474       Zr477   2.388       .  S
O474       Zr493   2.387       .  S
Zr475       O500   2.441       .  S
Zr475       O494   2.457       .  S
Zr475       O502   2.458       .  S
Zr475       O490   2.477       .  S
Zr475       O481   2.410       .  S
Zr475       O482   2.414       .  S
Zr475       O483   2.387       .  S
Zr475       O484   2.390       .  S
Zr476       O495   2.435       .  S
Zr476       O488   2.436       .  S
Zr476       O489   2.405       .  S
Zr476       O482   2.402       .  S
Zr476       O483   2.394       .  S
Zr477       O479   2.435       .  S
Zr477       O501   2.437       .  S
Zr477       O503   2.423       .  S
Zr477       O481   2.389       .  S
Zr477       O484   2.388       .  S
Zr478       O504   2.434       .  S
Zr478       O505   2.435       .  S
Zr478       O480   2.437       .  S
Zr478       O481   2.389       .  S
Zr478       O482   2.367       .  S
O479        H516   0.990       .  S
O480        H511   0.990       .  S
O480        H525   0.990       .  S
O482        H508   0.963       .  S
O483       Zr493   2.390       .  S
O484       Zr493   2.376       .  S
O484        H509   0.966       .  S
C485       C2920   1.492       .  S
C486       C3073   1.482       .  S
C487       C2980   1.485       .  S
O488        H524   0.990       .  S
O489        C491   1.281       .  A
O490        C491   1.291       .  A
C491       C2893   1.482       .  S
O492       Zr493   2.440       .  S
O492        H521   0.990       .  S
Zr493       O496   2.438       .  S
Zr493       O497   2.440       .  S
Zr493       O498   2.396       .  S
O494        C499   1.288       .  A
O495        H512   0.990       .  S
O495        H527   0.990       .  S
O496        H513   0.990       .  S
O497        H517   0.990       .  S
O497        H526   0.990       .  S
O498        C499   1.277       .  A
C499       C2929   1.488   1_565  S
O500        H519   0.990       .  S
O500        H523   0.990       .  S
O501        H515   0.990       .  S
O501        H522   0.990       .  S
O502        C506   1.289       .  A
O503        C506   1.284       .  A
O504        H514   0.990       .  S
O505        H518   0.990       .  S
C506       C2881   1.494       .  S
Zr529       O530   2.441       .  S
Zr529       O531   2.455       .  S
Zr529       O532   2.463       .  S
Zr529       O535   2.436       .  S
Zr529       O537   2.378       .  S
Zr529       O538   2.391       .  S
Zr529       O539   2.413   1_565  S
Zr529       O540   2.407   1_565  S
O530        H586   0.990       .  S
O530        H594   0.990       .  S
O531        C551   1.287       .  A
O532        C553   1.288       .  A
O533       Zr543   2.424       .  S
O533        C552   1.284   1_545  A
O534       Zr542   2.417       .  S
O534        C553   1.282   1_545  A
O535        C552   1.285       .  A
O536       Zr544   2.391       .  S
O536        C551   1.275       .  A
O537       Zr542   2.399   1_565  S
O537       Zr544   2.391       .  S
O538       Zr543   2.391   1_565  S
O538       Zr544   2.375       .  S
O538        H573   0.966       .  S
O539       Zr542   2.391       .  S
O539       Zr559   2.385       .  S
O539        H576   0.964       .  S
O540       Zr543   2.383       .  S
O540       Zr559   2.382       .  S
Zr541       O566   2.441       .  S
Zr541       O560   2.448       .  S
Zr541       O568   2.450       .  S
Zr541       O556   2.470       .  S
Zr541       O547   2.409       .  S
Zr541       O548   2.411       .  S
Zr541       O549   2.385       .  S
Zr541       O550   2.390       .  S
Zr542       O561   2.436       .  S
Zr542       O554   2.434   1_545  S
Zr542       O555   2.410       .  S
Zr542       O548   2.401       .  S
Zr542       O549   2.391       .  S
Zr543       O545   2.436       .  S
Zr543       O567   2.436   1_545  S
Zr543       O569   2.418       .  S
Zr543       O547   2.391       .  S
Zr543       O550   2.390       .  S
Zr544       O570   2.435       .  S
Zr544       O571   2.437       .  S
Zr544       O546   2.437       .  S
Zr544       O547   2.389   1_565  S
Zr544       O548   2.370   1_565  S
O545        H582   0.990       .  S
O546        H577   0.990       .  S
O546        H591   0.990       .  S
O548        H574   0.963       .  S
O549       Zr559   2.387       .  S
O550       Zr559   2.374       .  S
O550        H575   0.966       .  S
C551       C2836   1.490       .  S
C552       C2857   1.486       .  S
C553       C2872   1.491       .  S
O554        H590   0.990       .  S
O555        C557   1.282       .  A
O556        C557   1.290       .  A
C557       C3121   1.487       .  S
O558       Zr559   2.439       .  S
O558        H587   0.990       .  S
Zr559       O562   2.437       .  S
Zr559       O563   2.440       .  S
Zr559       O564   2.398       .  S
O560        C565   1.286       .  A
O561        H578   0.990       .  S
O561        H593   0.990       .  S
O562        H579   0.990       .  S
O563        H583   0.990       .  S
O563        H592   0.990       .  S
O564        C565   1.278       .  A
C565       C2845   1.488       .  S
O566        H585   0.990       .  S
O566        H589   0.990       .  S
O567        H581   0.990       .  S
O567        H588   0.990       .  S
O568        C572   1.287       .  A
O569        C572   1.283       .  A
O570        H580   0.990       .  S
O571        H584   0.990   1_565  S
C572       C2821   1.485       .  S
Zr595       O596   2.441       .  S
Zr595       O597   2.448       .  S
Zr595       O598   2.464       .  S
Zr595       O601   2.447       .  S
Zr595       O603   2.380       .  S
Zr595       O604   2.391       .  S
Zr595       O605   2.411       .  S
Zr595       O606   2.408       .  S
O596        H652   0.990       .  S
O596        H660   0.990       .  S
O597        C617   1.286       .  A
O598        C619   1.289       .  A
O599       Zr609   2.410       .  S
O599        C618   1.282       .  A
O600       Zr608   2.417       .  S
O600        C619   1.281       .  A
O601        C618   1.287       .  A
O602       Zr610   2.399       .  S
O602        C617   1.277       .  A
O603       Zr608   2.394       .  S
O603       Zr610   2.388       .  S
O604       Zr609   2.394       .  S
O604       Zr610   2.377       .  S
O604        H639   0.966       .  S
O605       Zr608   2.397       .  S
O605       Zr625   2.375       .  S
O605        H642   0.963       .  S
O606       Zr609   2.392       .  S
O606       Zr625   2.391       .  S
Zr607       O632   2.440       .  S
Zr607       O626   2.450       .  S
Zr607       O634   2.460       .  S
Zr607       O622   2.469       .  S
Zr607       O613   2.404       .  S
Zr607       O614   2.416       .  S
Zr607       O615   2.385       .  S
Zr607       O616   2.390       .  S
Zr608       O627   2.436       .  S
Zr608       O620   2.435       .  S
Zr608       O621   2.405       .  S
Zr608       O614   2.402       .  S
Zr608       O615   2.398       .  S
Zr609       O611   2.435       .  S
Zr609       O633   2.436       .  S
Zr609       O635   2.423       .  S
Zr609       O613   2.382       .  S
Zr609       O616   2.388       .  S
Zr610       O636   2.437       .  S
Zr610       O637   2.435       .  S
Zr610       O612   2.437       .  S
Zr610       O613   2.385       .  S
Zr610       O614   2.378       .  S
O611        H648   0.990       .  S
O612        H643   0.990       .  S
O612        H657   0.990       .  S
O614        H640   0.964       .  S
O615       Zr625   2.386       .  S
O616       Zr625   2.378       .  S
O616        H641   0.966       .  S
C617       C2848   1.490       .  S
C618       C2797   1.486       .  S
C619       C2809   1.484       .  S
O620        H656   0.990       .  S
O621        C623   1.280       .  A
O622        C623   1.290       .  A
C623       C3064   1.484       .  S
O624       Zr625   2.440       .  S
O624        H653   0.991       .  S
Zr625       O628   2.438       .  S
Zr625       O629   2.439       .  S
Zr625       O630   2.397       .  S
O626        C631   1.287       .  A
O627        H644   0.991       .  S
O627        H659   0.990       .  S
O628        H645   0.990       .  S
O629        H649   0.990       .  S
O629        H658   0.990       .  S
O630        C631   1.276       .  A
C631       C2833   1.488       .  S
O632        H651   0.990       .  S
O632        H655   0.990       .  S
O633        H647   0.990       .  S
O633        H654   0.990       .  S
O634        C638   1.289       .  A
O635        C638   1.284       .  A
O636        H646   0.990       .  S
O637        H650   0.990       .  S
C638       C2785   1.492       .  S
Zr661       O662   2.441       .  S
Zr661       O663   2.454       .  S
Zr661       O664   2.466       .  S
Zr661       O667   2.436       .  S
Zr661       O669   2.378       .  S
Zr661       O670   2.393       .  S
Zr661       O671   2.409       .  S
Zr661       O672   2.407       .  S
O662        H718   0.990       .  S
O662        H726   0.990       .  S
O663        C683   1.287       .  A
O664        C685   1.289       .  A
O665       Zr675   2.415       .  S
O665        C684   1.282       .  A
O666       Zr674   2.413       .  S
O666        C685   1.282       .  A
O667        C684   1.285       .  A
O668       Zr676   2.401       .  S
O668        C683   1.276       .  A
O669       Zr674   2.395       .  S
O669       Zr676   2.386       .  S
O670       Zr675   2.399       .  S
O670       Zr676   2.370       .  S
O670        H705   0.966       .  S
O671       Zr674   2.389       .  S
O671       Zr691   2.376       .  S
O671        H708   0.963       .  S
O672       Zr675   2.387       .  S
O672       Zr691   2.382       .  S
Zr673       O698   2.441       .  S
Zr673       O692   2.469       .  S
Zr673       O700   2.451       .  S
Zr673       O688   2.475       .  S
Zr673       O679   2.413       .  S
Zr673       O680   2.418       .  S
Zr673       O681   2.383       .  S
Zr673       O682   2.392       .  S
Zr674       O693   2.434       .  S
Zr674       O686   2.434       .  S
Zr674       O687   2.401       .  S
Zr674       O680   2.400       .  S
Zr674       O681   2.389       .  S
Zr675       O677   2.435       .  S
Zr675       O699   2.437       .  S
Zr675       O701   2.427       .  S
Zr675       O679   2.386       .  S
Zr675       O682   2.387       .  S
Zr676       O702   2.439       .  S
Zr676       O703   2.435       .  S
Zr676       O678   2.437       .  S
Zr676       O679   2.390       .  S
Zr676       O680   2.379       .  S
O677        H714   0.990       .  S
O678        H709   0.990       .  S
O678        H723   0.990       .  S
O680        H706   0.963       .  S
O681       Zr691   2.388       .  S
O682       Zr691   2.381       .  S
O682        H707   0.966       .  S
C683       C2749   1.489       .  S
C684       C2773   1.469       .  S
C685       C2812   1.488       .  S
O686        H722   0.990       .  S
O687        C689   1.280       .  A
O688        C689   1.291       .  A
C689       C3232   1.485       .  S
O690       Zr691   2.439       .  S
O690        H719   0.990       .  S
Zr691       O694   2.437       .  S
Zr691       O695   2.439       .  S
Zr691       O696   2.385       .  S
O692        C697   1.290       .  A
O693        H710   0.990       .  S
O693        H725   0.990       .  S
O694        H711   0.990       .  S
O695        H715   0.990       .  S
O695        H724   0.990       .  S
O696        C697   1.275       .  A
C697       C2764   1.488       .  S
O698        H717   0.990       .  S
O698        H721   0.990       .  S
O699        H713   0.990       .  S
O699        H720   0.990       .  S
O700        C704   1.287       .  A
O701        C704   1.285       .  A
O702        H712   0.990       .  S
O703        H716   0.990       .  S
C704       C2737   1.491       .  S
Zr727       O728   2.441       .  S
Zr727       O729   2.455   1_565  S
Zr727       O730   2.459       .  S
Zr727       O733   2.439       .  S
Zr727       O735   2.375       .  S
Zr727       O736   2.390       .  S
Zr727       O737   2.410       .  S
Zr727       O738   2.402       .  S
O728        H784   0.990   1_565  S
O728        H792   0.991       .  S
O729        C749   1.288       .  A
O730        C751   1.288       .  A
O731       Zr741   2.415       .  S
O731        C750   1.283       .  A
O732       Zr740   2.417       .  S
O732        C751   1.282       .  A
O733        C750   1.286       .  A
O734       Zr742   2.394   1_545  S
O734        C749   1.276       .  A
O735       Zr740   2.390       .  S
O735       Zr742   2.385       .  S
O736       Zr741   2.393       .  S
O736       Zr742   2.369       .  S
O736        H771   0.965       .  S
O737       Zr740   2.395       .  S
O737       Zr757   2.380       .  S
O737        H774   0.964       .  S
O738       Zr741   2.387       .  S
O738       Zr757   2.375       .  S
Zr739       O764   2.440       .  S
Zr739       O758   2.462       .  S
Zr739       O766   2.467       .  S
Zr739       O754   2.472       .  S
Zr739       O745   2.410       .  S
Zr739       O746   2.412       .  S
Zr739       O747   2.387       .  S
Zr739       O748   2.391       .  S
Zr740       O759   2.436       .  S
Zr740       O752   2.436       .  S
Zr740       O753   2.410       .  S
Zr740       O746   2.394       .  S
Zr740       O747   2.393       .  S
Zr741       O743   2.435       .  S
Zr741       O765   2.439       .  S
Zr741       O767   2.414       .  S
Zr741       O745   2.388       .  S
Zr741       O748   2.392       .  S
Zr742       O768   2.436       .  S
Zr742       O769   2.435       .  S
Zr742       O744   2.437       .  S
Zr742       O745   2.391       .  S
Zr742       O746   2.375       .  S
O743        H780   0.990       .  S
O744        H775   0.990   1_565  S
O744        H789   0.990   1_565  S
O746        H772   0.964       .  S
O747       Zr757   2.391       .  S
O748       Zr757   2.380       .  S
O748        H773   0.966       .  S
C749       C2761   1.485       .  S
C750       C2725   1.475       .  S
C751       C2869   1.479       .  S
O752        H788   0.990       .  S
O753        C755   1.282       .  A
O754        C755   1.291       .  A
C755       C3160   1.486       .  S
O756       Zr757   2.440       .  S
O756        H785   0.990       .  S
Zr757       O760   2.437       .  S
Zr757       O761   2.440       .  S
Zr757       O762   2.389       .  S
O758        C763   1.290       .  A
O759        H776   0.990       .  S
O759        H791   0.990       .  S
O760        H777   0.990       .  S
O761        H781   0.990       .  S
O761        H790   0.990       .  S
O762        C763   1.276       .  A
C763       C2752   1.487       .  S
O764        H783   0.990       .  S
O764        H787   0.991       .  S
O765        H779   0.990       .  S
O765        H786   0.990       .  S
O766        C770   1.289       .  A
O767        C770   1.283       .  A
O768        H778   0.990       .  S
O769        H782   0.990       .  S
C770       C2713   1.496       .  S
Zr793       O794   2.443       .  S
Zr793       O795   2.452       .  S
Zr793       O796   2.449       .  S
Zr793       O799   2.430       .  S
Zr793       O801   2.377       .  S
Zr793       O802   2.387       .  S
Zr793       O803   2.411   1_565  S
Zr793       O804   2.408   1_565  S
O794        H850   0.990       .  S
O794        H858   0.990       .  S
O795        C815   1.287       .  A
O796        C817   1.286       .  A
O797       Zr807   2.413       .  S
O797        C816   1.281   1_545  A
O798       Zr806   2.414       .  S
O798        C817   1.281   1_545  A
O799        C816   1.284       .  A
O800       Zr808   2.396       .  S
O800        C815   1.276       .  A
O801       Zr806   2.392   1_565  S
O801       Zr808   2.384       .  S
O802       Zr807   2.395   1_565  S
O802       Zr808   2.374       .  S
O802        H837   0.966       .  S
O803       Zr806   2.395       .  S
O803       Zr823   2.373       .  S
O803        H840   0.963       .  S
O804       Zr807   2.388       .  S
O804       Zr823   2.394       .  S
Zr805       O830   2.441       .  S
Zr805       O824   2.456       .  S
Zr805       O832   2.454       .  S
Zr805       O820   2.472       .  S
Zr805       O811   2.412       .  S
Zr805       O812   2.414       .  S
Zr805       O813   2.384       .  S
Zr805       O814   2.389       .  S
Zr806       O825   2.435       .  S
Zr806       O818   2.436   1_545  S
Zr806       O819   2.402       .  S
Zr806       O812   2.397       .  S
Zr806       O813   2.395       .  S
Zr807       O809   2.434       .  S
Zr807       O831   2.438       .  S
Zr807       O833   2.415       .  S
Zr807       O811   2.391       .  S
Zr807       O814   2.389       .  S
Zr808       O834   2.435       .  S
Zr808       O835   2.436       .  S
Zr808       O810   2.438       .  S
Zr808       O811   2.392   1_565  S
Zr808       O812   2.369   1_565  S
O809        H846   0.990       .  S
O810        H841   0.990       .  S
O810        H855   0.990       .  S
O812        H838   0.964       .  S
O813       Zr823   2.386       .  S
O814       Zr823   2.378       .  S
O814        H839   0.967       .  S
C815       C2677   1.483       .  S
C816       C2728   1.477       .  S
C817       C2701   1.474       .  S
O818        H854   0.990       .  S
O819        C821   1.281       .  A
O820        C821   1.290       .  A
C821       C3025   1.486       .  S
O822       Zr823   2.439       .  S
O822        H851   0.991       .  S
Zr823       O826   2.438       .  S
Zr823       O827   2.439       .  S
Zr823       O828   2.396       .  S
O824        C829   1.287       .  A
O825        H842   0.990       .  S
O825        H857   0.990       .  S
O826        H843   0.990       .  S
O827        H847   0.990       .  S
O827        H856   0.990       .  S
O828        C829   1.277       .  A
C829       C2689   1.491       .  S
O830        H849   0.990       .  S
O830        H853   0.990       .  S
O831        H845   0.990       .  S
O831        H852   0.990       .  S
O832        C836   1.288       .  A
O833        C836   1.282       .  A
O834        H844   0.990       .  S
O835        H848   0.990   1_565  S
C836       C2665   1.485       .  S
Zr859       O860   2.442       .  S
Zr859       O861   2.453       .  S
Zr859       O862   2.456       .  S
Zr859       O865   2.441       .  S
Zr859       O867   2.379       .  S
Zr859       O868   2.388       .  S
Zr859       O869   2.412       .  S
Zr859       O870   2.407       .  S
O860        H916   0.990       .  S
O860        H924   0.990       .  S
O861        C881   1.286       .  A
O862        C883   1.287       .  A
O863       Zr873   2.404       .  S
O863        C882   1.280       .  A
O864       Zr872   2.417       .  S
O864        C883   1.281       .  A
O865        C882   1.286       .  A
O866       Zr874   2.396       .  S
O866        C881   1.277       .  A
O867       Zr872   2.396       .  S
O867       Zr874   2.388       .  S
O868       Zr873   2.392       .  S
O868       Zr874   2.372       .  S
O868        H903   0.966       .  S
O869       Zr872   2.391       .  S
O869       Zr889   2.382       .  S
O869        H906   0.964       .  S
O870       Zr873   2.386       .  S
O870       Zr889   2.387       .  S
Zr871       O896   2.441       .  S
Zr871       O890   2.453       .  S
Zr871       O898   2.451       .  S
Zr871       O886   2.469       .  S
Zr871       O877   2.408       .  S
Zr871       O878   2.416       .  S
Zr871       O879   2.387       .  S
Zr871       O880   2.389       .  S
Zr872       O891   2.436       .  S
Zr872       O884   2.435       .  S
Zr872       O885   2.406       .  S
Zr872       O878   2.401       .  S
Zr872       O879   2.393       .  S
Zr873       O875   2.435       .  S
Zr873       O897   2.436       .  S
Zr873       O899   2.410       .  S
Zr873       O877   2.388       .  S
Zr873       O880   2.387       .  S
Zr874       O900   2.436       .  S
Zr874       O901   2.436       .  S
Zr874       O876   2.437       .  S
Zr874       O877   2.389       .  S
Zr874       O878   2.373       .  S
O875        H912   0.990       .  S
O876        H907   0.990       .  S
O876        H921   0.990       .  S
O878        H904   0.963       .  S
O879       Zr889   2.387       .  S
O880       Zr889   2.376       .  S
O880        H905   0.966       .  S
C881       C2692   1.490       .  S
C882       C2776   1.484       .  S
C883       C2653   1.480       .  S
O884        H920   0.990       .  S
O885        C887   1.280       .  A
O886        C887   1.290       .  A
C887       C2965   1.486       .  S
O888       Zr889   2.439       .  S
O888        H917   0.990       .  S
Zr889       O892   2.437       .  S
Zr889       O893   2.440       .  S
Zr889       O894   2.395       .  S
O890        C895   1.287       .  A
O891        H908   0.990       .  S
O891        H923   0.990       .  S
O892        H909   0.990       .  S
O893        H913   0.990       .  S
O893        H922   0.990       .  S
O894        C895   1.277       .  A
C895       C2680   1.485       .  S
O896        H915   0.990       .  S
O896        H919   0.990       .  S
O897        H911   0.990       .  S
O897        H918   0.990       .  S
O898        C902   1.288       .  A
O899        C902   1.281       .  A
O900        H910   0.990       .  S
O901        H914   0.990       .  S
C902       C2641   1.483       .  S
Zr925       O926   2.442       .  S
Zr925       O927   2.447       .  S
Zr925       O928   2.462       .  S
Zr925       O931   2.448       .  S
Zr925       O933   2.382       .  S
Zr925       O934   2.391       .  S
Zr925       O935   2.411       .  S
Zr925       O936   2.401       .  S
O926        H982   0.991       .  S
O926        H990   0.990       .  S
O927        C947   1.285       .  A
O928        C949   1.288       .  A
O929       Zr939   2.416       .  S
O929        C948   1.282       .  A
O930       Zr938   2.412       .  S
O930        C949   1.281       .  A
O931        C948   1.287       .  A
O932       Zr940   2.400       .  S
O932        C947   1.277       .  A
O933       Zr938   2.396       .  S
O933       Zr940   2.388       .  S
O934       Zr939   2.392       .  S
O934       Zr940   2.374       .  S
O934        H969   0.966       .  S
O935       Zr938   2.394       .  S
O935       Zr955   2.383       .  S
O935        H972   0.964       .  S
O936       Zr939   2.386       .  S
O936       Zr955   2.381       .  S
Zr937       O962   2.440       .  S
Zr937       O956   2.461       .  S
Zr937       O964   2.453       .  S
Zr937       O952   2.476       .  S
Zr937       O943   2.411       .  S
Zr937       O944   2.416       .  S
Zr937       O945   2.383       .  S
Zr937       O946   2.390       .  S
Zr938       O957   2.435       .  S
Zr938       O950   2.435       .  S
Zr938       O951   2.406       .  S
Zr938       O944   2.401       .  S
Zr938       O945   2.392       .  S
Zr939       O941   2.436       .  S
Zr939       O963   2.437       .  S
Zr939       O965   2.411       .  S
Zr939       O943   2.390       .  S
Zr939       O946   2.393       .  S
Zr940       O966   2.434       .  S
Zr940       O967   2.436       .  S
Zr940       O942   2.438       .  S
Zr940       O943   2.391       .  S
Zr940       O944   2.376       .  S
O941        H978   0.990       .  S
O942        H973   0.991       .  S
O942        H987   0.990       .  S
O944        H970   0.963       .  S
O945       Zr955   2.386       .  S
O946       Zr955   2.378       .  S
O946        H971   0.966       .  S
C947       C2617   1.485       .  S
C948       C2800   1.476       .  S
C949       C2656   1.488       .  S
O950        H986   0.990       .  S
O951        C953   1.281       .  A
O952        C953   1.291       .  A
C953       C2944   1.487       .  S
O954       Zr955   2.438       .  S
O954        H983   0.990       .  S
Zr955       O958   2.436       .  S
Zr955       O959   2.440       .  S
Zr955       O960   2.392       .  S
O956        C961   1.289       .  A
O957        H974   0.990       .  S
O957        H989   0.990       .  S
O958        H975   0.990       .  S
O959        H979   0.990       .  S
O959        H988   0.990       .  S
O960        C961   1.277       .  A
C961       C2629   1.484       .  S
O962        H981   0.990       .  S
O962        H985   0.990       .  S
O963        H977   0.990       .  S
O963        H984   0.990       .  S
O964        C968   1.288       .  A
O965        C968   1.281       .  A
O966        H976   0.990       .  S
O967        H980   0.990       .  S
C968       C2605   1.487       .  S
Zr991       O992   2.442       .  S
Zr991       O993   2.464   1_565  S
Zr991       O994   2.461       .  S
Zr991       O997   2.439       .  S
Zr991       O999   2.373       .  S
Zr991      O1000   2.389       .  S
Zr991      O1001   2.413       .  S
Zr991      O1002   2.410       .  S
O992       H1048   0.991   1_565  S
O992       H1056   0.990       .  S
O993       C1013   1.288       .  A
O994       C1015   1.288       .  A
O995      Zr1005   2.423       .  S
O995       C1014   1.284       .  A
O996      Zr1004   2.400       .  S
O996       C1015   1.280       .  A
O997       C1014   1.286       .  A
O998      Zr1006   2.389   1_545  S
O998       C1013   1.276       .  A
O999      Zr1004   2.395       .  S
O999      Zr1006   2.384       .  S
O1000     Zr1005   2.397       .  S
O1000     Zr1006   2.372       .  S
O1000      H1035   0.966       .  S
O1001     Zr1004   2.390       .  S
O1001     Zr1021   2.385       .  S
O1001      H1038   0.964       .  S
O1002     Zr1005   2.389       .  S
O1002     Zr1021   2.388       .  S
Zr1003     O1028   2.442       .  S
Zr1003     O1022   2.450       .  S
Zr1003     O1030   2.452       .  S
Zr1003     O1018   2.480       .  S
Zr1003     O1009   2.409       .  S
Zr1003     O1010   2.411       .  S
Zr1003     O1011   2.383       .  S
Zr1003     O1012   2.390       .  S
Zr1004     O1023   2.436       .  S
Zr1004     O1016   2.434       .  S
Zr1004     O1017   2.395       .  S
Zr1004     O1010   2.397       .  S
Zr1004     O1011   2.387       .  S
Zr1005     O1007   2.438       .  S
Zr1005     O1029   2.438       .  S
Zr1005     O1031   2.426       .  S
Zr1005     O1009   2.391       .  S
Zr1005     O1012   2.392       .  S
Zr1006     O1032   2.435       .  S
Zr1006     O1033   2.435       .  S
Zr1006     O1008   2.438   1_565  S
Zr1006     O1009   2.390       .  S
Zr1006     O1010   2.372       .  S
O1007      H1044   0.990       .  S
O1008      H1039   0.990       .  S
O1008      H1053   0.990       .  S
O1010      H1036   0.964       .  S
O1011     Zr1021   2.386       .  S
O1012     Zr1021   2.378       .  S
O1012      H1037   0.966       .  S
C1013      C2632   1.487       .  S
C1014      C2860   1.478       .  S
C1015      C2704   1.483       .  S
O1016      H1052   0.990       .  S
O1017      C1019   1.278       .  A
O1018      C1019   1.292       .  A
C1019      C2896   1.486       .  S
O1020     Zr1021   2.439       .  S
O1020      H1049   0.990       .  S
Zr1021     O1024   2.438       .  S
Zr1021     O1025   2.439       .  S
Zr1021     O1026   2.401       .  S
O1022      C1027   1.286       .  A
O1023      H1040   0.990       .  S
O1023      H1055   0.990       .  S
O1024      H1041   0.990       .  S
O1025      H1045   0.990       .  S
O1025      H1054   0.990       .  S
O1026      C1027   1.278       .  A
C1027      C2620   1.486       .  S
O1028      H1047   0.990       .  S
O1028      H1051   0.991       .  S
O1029      H1043   0.990       .  S
O1029      H1050   0.990       .  S
O1030      C1034   1.288       .  A
O1031      C1034   1.285       .  A
O1032      H1042   0.990       .  S
O1033      H1046   0.990       .  S
C1034      C2593   1.489       .  S
Zr1057     O1058   2.442       .  S
Zr1057     O1059   2.445       .  S
Zr1057     O1060   2.445       .  S
Zr1057     O1063   2.449       .  S
Zr1057     O1065   2.382       .  S
Zr1057     O1066   2.388       .  S
Zr1057     O1067   2.415       .  S
Zr1057     O1068   2.397       .  S
O1058      H1114   0.990       .  S
O1058      H1122   0.991       .  S
O1059      C1079   1.285   1_545  A
O1060      C1081   1.285       .  A
O1061     Zr1071   2.407       .  S
O1061      C1080   1.281       .  A
O1062     Zr1070   2.422       .  S
O1062      C1081   1.282       .  A
O1063      C1080   1.286       .  A
O1064     Zr1072   2.410       .  S
O1064      C1079   1.280   1_545  A
O1065     Zr1070   2.393       .  S
O1065     Zr1072   2.382       .  S
O1066     Zr1071   2.390       .  S
O1066     Zr1072   2.382       .  S
O1066      H1101   0.966       .  S
O1067     Zr1070   2.398       .  S
O1067     Zr1087   2.388       .  S
O1067      H1104   0.964       .  S
O1068     Zr1071   2.383       .  S
O1068     Zr1087   2.382       .  S
Zr1069     O1094   2.442       .  S
Zr1069     O1088   2.443       .  S
Zr1069     O1096   2.452       .  S
Zr1069     O1084   2.447       .  S
Zr1069     O1075   2.400       .  S
Zr1069     O1076   2.411       .  S
Zr1069     O1077   2.383       .  S
Zr1069     O1078   2.380       .  S
Zr1070     O1089   2.437       .  S
Zr1070     O1082   2.435       .  S
Zr1070     O1083   2.418       .  S
Zr1070     O1076   2.397       .  S
Zr1070     O1077   2.398       .  S
Zr1071     O1073   2.435       .  S
Zr1071     O1095   2.440       .  S
Zr1071     O1097   2.415       .  S
Zr1071     O1075   2.385       .  S
Zr1071     O1078   2.389       .  S
Zr1072     O1098   2.435       .  S
Zr1072     O1099   2.436       .  S
Zr1072     O1074   2.437       .  S
Zr1072     O1075   2.391       .  S
Zr1072     O1076   2.385       .  S
O1073      H1110   0.990       .  S
O1074      H1105   0.990       .  S
O1074      H1119   0.990       .  S
O1076      H1102   0.965       .  S
O1077     Zr1087   2.382       .  S
O1078     Zr1087   2.384       .  S
O1078      H1103   0.967       .  S
C1079      C2536   1.491       .  S
C1080      C2560   1.479       .  S
C1081      C2992   1.480       .  S
O1082      H1118   0.990       .  S
O1083      C1085   1.282       .  A
O1084      C1085   1.286       .  A
C1085      C2569   1.480       .  S
O1086     Zr1087   2.439       .  S
O1086      H1115   0.990       .  S
Zr1087     O1090   2.437       .  S
Zr1087     O1091   2.440       .  S
Zr1087     O1092   2.401       .  S
O1088      C1093   1.285       .  A
O1089      H1106   0.990       .  S
O1089      H1121   0.990       .  S
O1090      H1107   0.990       .  S
O1091      H1111   0.990       .  S
O1091      H1120   0.990       .  S
O1092      C1093   1.278       .  A
C1093      C2548   1.487       .  S
O1094      H1113   0.990       .  S
O1094      H1117   0.990       .  S
O1095      H1109   0.990       .  S
O1095      H1116   0.990       .  S
O1096      C1100   1.288       .  A
O1097      C1100   1.282       .  A
O1098      H1108   0.990       .  S
O1099      H1112   0.990       .  S
C1100      C2581   1.486       .  S
Zr1123     O1124   2.441       .  S
Zr1123     O1125   2.448       .  S
Zr1123     O1126   2.460       .  S
Zr1123     O1129   2.456       .  S
Zr1123     O1131   2.385       .  S
Zr1123     O1132   2.395       .  S
Zr1123     O1133   2.416       .  S
Zr1123     O1134   2.396       .  S
O1124      H1180   0.990       .  S
O1124      H1188   0.991       .  S
O1125      C1145   1.285       .  A
O1126      C1147   1.288       .  A
O1127     Zr1137   2.400       .  S
O1127      C1146   1.281       .  A
O1128     Zr1136   2.433       .  S
O1128      C1147   1.285       .  A
O1129      C1146   1.288       .  A
O1130     Zr1138   2.393       .  S
O1130      C1145   1.277       .  A
O1131     Zr1136   2.389       .  S
O1131     Zr1138   2.384       .  S
O1132     Zr1137   2.390       .  S
O1132     Zr1138   2.379       .  S
O1132      H1167   0.967       .  S
O1133     Zr1136   2.399       .  S
O1133     Zr1153   2.391       .  S
O1133      H1170   0.963       .  S
O1134     Zr1137   2.383       .  S
O1134     Zr1153   2.377       .  S
Zr1135     O1160   2.440       .  S
Zr1135     O1154   2.453       .  S
Zr1135     O1162   2.459       .  S
Zr1135     O1150   2.447       .  S
Zr1135     O1141   2.401       .  S
Zr1135     O1142   2.418       .  S
Zr1135     O1143   2.386       .  S
Zr1135     O1144   2.378       .  S
Zr1136     O1155   2.436       .  S
Zr1136     O1148   2.436       .  S
Zr1136     O1149   2.420       .  S
Zr1136     O1142   2.403       .  S
Zr1136     O1143   2.403       .  S
Zr1137     O1139   2.435       .  S
Zr1137     O1161   2.438       .  S
Zr1137     O1163   2.414       .  S
Zr1137     O1141   2.382       .  S
Zr1137     O1144   2.388       .  S
Zr1138     O1164   2.435       .  S
Zr1138     O1165   2.436       .  S
Zr1138     O1140   2.438       .  S
Zr1138     O1141   2.385       .  S
Zr1138     O1142   2.383       .  S
O1139      H1176   0.990       .  S
O1140      H1171   0.990       .  S
O1140      H1185   0.990       .  S
O1142      H1168   0.966       .  S
O1143     Zr1153   2.380       .  S
O1144     Zr1153   2.381       .  S
O1144      H1169   0.967       .  S
C1145      C2545   1.486       .  S
C1146      C2497   1.485       .  S
C1147      C2956   1.491       .  S
O1148      H1184   0.990       .  S
O1149      C1151   1.283       .  A
O1150      C1151   1.287       .  A
C1151      C2509   1.483       .  S
O1152     Zr1153   2.438       .  S
O1152      H1181   0.990       .  S
Zr1153     O1156   2.437       .  S
Zr1153     O1157   2.440       .  S
Zr1153     O1158   2.401       .  S
O1154      C1159   1.286       .  A
O1155      H1172   0.991       .  S
O1155      H1187   0.990       .  S
O1156      H1173   0.990       .  S
O1157      H1177   0.990       .  S
O1157      H1186   0.990       .  S
O1158      C1159   1.279       .  A
C1159      C2533   1.490       .  S
O1160      H1179   0.990       .  S
O1160      H1183   0.990       .  S
O1161      H1175   0.990       .  S
O1161      H1182   0.990       .  S
O1162      C1166   1.289       .  A
O1163      C1166   1.281       .  A
O1164      H1174   0.990       .  S
O1165      H1178   0.990       .  S
C1166      C2524   1.493       .  S
Zr1189     O1190   2.441       .  S
Zr1189     O1191   2.455       .  S
Zr1189     O1192   2.472       .  S
Zr1189     O1195   2.462       .  S
Zr1189     O1197   2.383       .  S
Zr1189     O1198   2.398       .  S
Zr1189     O1199   2.412       .  S
Zr1189     O1200   2.397       .  S
O1190      H1246   0.990       .  S
O1190      H1254   0.991       .  S
O1191      C1211   1.287       .  A
O1192      C1213   1.290       .  A
O1193     Zr1203   2.395       .  S
O1193      C1212   1.279       .  A
O1194     Zr1202   2.424       .  S
O1194      C1213   1.283       .  A
O1195      C1212   1.290       .  A
O1196     Zr1204   2.396       .  S
O1196      C1211   1.277       .  A
O1197     Zr1202   2.391       .  S
O1197     Zr1204   2.386       .  S
O1198     Zr1203   2.396       .  S
O1198     Zr1204   2.378       .  S
O1198      H1233   0.967       .  S
O1199     Zr1202   2.397       .  S
O1199     Zr1219   2.385       .  S
O1199      H1236   0.964       .  S
O1200     Zr1203   2.386       .  S
O1200     Zr1219   2.375       .  S
Zr1201     O1226   2.441       .  S
Zr1201     O1220   2.452       .  S
Zr1201     O1228   2.455       .  S
Zr1201     O1216   2.448       .  S
Zr1201     O1207   2.397       .  S
Zr1201     O1208   2.415       .  S
Zr1201     O1209   2.382       .  S
Zr1201     O1210   2.382       .  S
Zr1202     O1221   2.437       .  S
Zr1202     O1214   2.434       .  S
Zr1202     O1215   2.419       .  S
Zr1202     O1208   2.404       .  S
Zr1202     O1209   2.397       .  S
Zr1203     O1205   2.435       .  S
Zr1203     O1227   2.439       .  S
Zr1203     O1229   2.419       .  S
Zr1203     O1207   2.377       .  S
Zr1203     O1210   2.389       .  S
Zr1204     O1230   2.437       .  S
Zr1204     O1231   2.435       .  S
Zr1204     O1206   2.437       .  S
Zr1204     O1207   2.382       .  S
Zr1204     O1208   2.386       .  S
O1205      H1242   0.990       .  S
O1206      H1237   0.991       .  S
O1206      H1251   0.990       .  S
O1208      H1234   0.965       .  S
O1209     Zr1219   2.377       .  S
O1210     Zr1219   2.383       .  S
O1210      H1235   0.966       .  S
C1211      C2452   1.490       .  S
C1212      C2473   1.479       .  S
C1213      C2908   1.495       .  S
O1214      H1250   0.990       .  S
O1215      C1217   1.283       .  A
O1216      C1217   1.287       .  A
C1217      C2488   1.484       .  S
O1218     Zr1219   2.438       .  S
O1218      H1247   0.991       .  S
Zr1219     O1222   2.438       .  S
Zr1219     O1223   2.439       .  S
Zr1219     O1224   2.392       .  S
O1220      C1225   1.287       .  A
O1221      H1238   0.990       .  S
O1221      H1253   0.990       .  S
O1222      H1239   0.990       .  S
O1223      H1243   0.990       .  S
O1223      H1252   0.990       .  S
O1224      C1225   1.277       .  A
C1225      C2461   1.487       .  S
O1226      H1245   0.991       .  S
O1226      H1249   0.990       .  S
O1227      H1241   0.990       .  S
O1227      H1248   0.990       .  S
O1228      C1232   1.288       .  A
O1229      C1232   1.282       .  A
O1230      H1240   0.990       .  S
O1231      H1244   0.990       .  S
C1232      C2584   1.491       .  S
Zr1255     O1256   2.440       .  S
Zr1255     O1257   2.452       .  S
Zr1255     O1258   2.471       .  S
Zr1255     O1261   2.470       .  S
Zr1255     O1263   2.385       .  S
Zr1255     O1264   2.394       .  S
Zr1255     O1265   2.414       .  S
Zr1255     O1266   2.394       .  S
O1256      H1312   0.990       .  S
O1256      H1320   0.991       .  S
O1257      C1277   1.287       .  A
O1258      C1279   1.290       .  A
O1259     Zr1269   2.403       .  S
O1259      C1278   1.281       .  A
O1260     Zr1268   2.427       .  S
O1260      C1279   1.284       .  A
O1261      C1278   1.291       .  A
O1262     Zr1270   2.392       .  S
O1262      C1277   1.277       .  A
O1263     Zr1268   2.396       .  S
O1263     Zr1270   2.386       .  S
O1264     Zr1269   2.393       .  S
O1264     Zr1270   2.379       .  S
O1264      H1299   0.966       .  S
O1265     Zr1268   2.399       .  S
O1265     Zr1285   2.386       .  S
O1265      H1302   0.964       .  S
O1266     Zr1269   2.386       .  S
O1266     Zr1285   2.376       .  S
Zr1267     O1292   2.441       .  S
Zr1267     O1286   2.455       .  S
Zr1267     O1294   2.464       .  S
Zr1267     O1282   2.458       .  S
Zr1267     O1273   2.399       .  S
Zr1267     O1274   2.415       .  S
Zr1267     O1275   2.389       .  S
Zr1267     O1276   2.383       .  S
Zr1268     O1287   2.435       .  S
Zr1268     O1280   2.435       .  S
Zr1268     O1281   2.424       .  S
Zr1268     O1274   2.404       .  S
Zr1268     O1275   2.399       .  S
Zr1269     O1271   2.436       .  S
Zr1269     O1293   2.438       .  S
Zr1269     O1295   2.414       .  S
Zr1269     O1273   2.383       .  S
Zr1269     O1276   2.390       .  S
Zr1270     O1296   2.435       .  S
Zr1270     O1297   2.436       .  S
Zr1270     O1272   2.437       .  S
Zr1270     O1273   2.384       .  S
Zr1270     O1274   2.378       .  S
O1271      H1308   0.990       .  S
O1272      H1303   0.990       .  S
O1272      H1317   0.990       .  S
O1274      H1300   0.965       .  S
O1275     Zr1285   2.385       .  S
O1276     Zr1285   2.382       .  S
O1276      H1301   0.967       .  S
C1277      C2464   1.488   1_565  S
C1278      C2428   1.492       .  S
C1279      C2884   1.493       .  S
O1280      H1316   0.990       .  S
O1281      C1283   1.283       .  A
O1282      C1283   1.288       .  A
C1283      C2437   1.476       .  S
O1284     Zr1285   2.440       .  S
O1284      H1313   0.991       .  S
Zr1285     O1288   2.439       .  S
Zr1285     O1289   2.441       .  S
Zr1285     O1290   2.395       .  S
O1286      C1291   1.287       .  A
O1287      H1304   0.990       .  S
O1287      H1319   0.990       .  S
O1288      H1305   0.990       .  S
O1289      H1309   0.990       .  S
O1289      H1318   0.990       .  S
O1290      C1291   1.277       .  A
C1291      C2449   1.490       .  S
O1292      H1311   0.990       .  S
O1292      H1315   0.990       .  S
O1293      H1307   0.990       .  S
O1293      H1314   0.990       .  S
O1294      C1298   1.290       .  A
O1295      C1298   1.282       .  A
O1296      H1306   0.990       .  S
O1297      H1310   0.990       .  S
C1298      C2521   1.488       .  S
Zr1321     O1322   2.442       .  S
Zr1321     O1323   2.461       .  S
Zr1321     O1324   2.454       .  S
Zr1321     O1327   2.454       .  S
Zr1321     O1329   2.380       .  S
Zr1321     O1330   2.387       .  S
Zr1321     O1331   2.419       .  S
Zr1321     O1332   2.402       .  S
O1322      H1378   0.990       .  S
O1322      H1386   0.991       .  S
O1323      C1343   1.288       .  A
O1324      C1345   1.287       .  A
O1325     Zr1335   2.408       .  S
O1325      C1344   1.281       .  A
O1326     Zr1334   2.432       .  S
O1326      C1345   1.285       .  A
O1327      C1344   1.287       .  A
O1328     Zr1336   2.391       .  S
O1328      C1343   1.276       .  A
O1329     Zr1334   2.389       .  S
O1329     Zr1336   2.386       .  S
O1330     Zr1335   2.392       .  S
O1330     Zr1336   2.380       .  S
O1330      H1365   0.967       .  S
O1331     Zr1334   2.400       .  S
O1331     Zr1351   2.388       .  S
O1331      H1368   0.964       .  S
O1332     Zr1335   2.387       .  S
O1332     Zr1351   2.389       .  S
Zr1333     O1358   2.440       .  S
Zr1333     O1352   2.450       .  S
Zr1333     O1360   2.454       .  S
Zr1333     O1348   2.452       .  S
Zr1333     O1339   2.400       .  S
Zr1333     O1340   2.415       .  S
Zr1333     O1341   2.383       .  S
Zr1333     O1342   2.383       .  S
Zr1334     O1353   2.436       .  S
Zr1334     O1346   2.435       .  S
Zr1334     O1347   2.419       .  S
Zr1334     O1340   2.403       .  S
Zr1334     O1341   2.403       .  S
Zr1335     O1337   2.435       .  S
Zr1335     O1359   2.437       .  S
Zr1335     O1361   2.414       .  S
Zr1335     O1339   2.382       .  S
Zr1335     O1342   2.393       .  S
Zr1336     O1362   2.435       .  S
Zr1336     O1363   2.436       .  S
Zr1336     O1338   2.437       .  S
Zr1336     O1339   2.383       .  S
Zr1336     O1340   2.380       .  S
O1337      H1374   0.990       .  S
O1338      H1369   0.990       .  S
O1338      H1383   0.990       .  S
O1340      H1366   0.965       .  S
O1341     Zr1351   2.379       .  S
O1342     Zr1351   2.378       .  S
O1342      H1367   0.966       .  S
C1343      C2377   1.481       .  S
C1344      C2401   1.474       .  S
C1345      C3196   1.487       .  S
O1346      H1382   0.990       .  S
O1347      C1349   1.283       .  A
O1348      C1349   1.287       .  A
C1349      C2572   1.481       .  S
O1350     Zr1351   2.438       .  S
O1350      H1379   0.991       .  S
Zr1351     O1354   2.438       .  S
Zr1351     O1355   2.439       .  S
Zr1351     O1356   2.404       .  S
O1352      C1357   1.286       .  A
O1353      H1370   0.991       .  S
O1353      H1385   0.990       .  S
O1354      H1371   0.990       .  S
O1355      H1375   0.990       .  S
O1355      H1384   0.990       .  S
O1356      C1357   1.279       .  A
C1357      C2389   1.492       .  S
O1358      H1377   0.990       .  S
O1358      H1381   0.990       .  S
O1359      H1373   0.990       .  S
O1359      H1380   0.990       .  S
O1360      C1364   1.288       .  A
O1361      C1364   1.283       .  A
O1362      H1372   0.990       .  S
O1363      H1376   0.990       .  S
C1364      C2413   1.489       .  S
Zr1387     O1388   2.442       .  S
Zr1387     O1389   2.456       .  S
Zr1387     O1390   2.453       .  S
Zr1387     O1393   2.460       .  S
Zr1387     O1395   2.385       .  S
Zr1387     O1396   2.391       .  S
Zr1387     O1397   2.420       .  S
Zr1387     O1398   2.397       .  S
O1388      H1444   0.990       .  S
O1388      H1452   0.990       .  S
O1389      C1409   1.287       .  A
O1390      C1411   1.287       .  A
O1391     Zr1401   2.402       .  S
O1391      C1410   1.281       .  A
O1392     Zr1400   2.433       .  S
O1392      C1411   1.285       .  A
O1393      C1410   1.289       .  A
O1394     Zr1402   2.400       .  S
O1394      C1409   1.277       .  A
O1395     Zr1400   2.395       .  S
O1395     Zr1402   2.388       .  S
O1396     Zr1401   2.393       .  S
O1396     Zr1402   2.377       .  S
O1396      H1431   0.966       .  S
O1397     Zr1400   2.398       .  S
O1397     Zr1417   2.386       .  S
O1397      H1434   0.964       .  S
O1398     Zr1401   2.382       .  S
O1398     Zr1417   2.374       .  S
Zr1399     O1424   2.443       .  S
Zr1399     O1418   2.452       .  S
Zr1399     O1426   2.449       .  S
Zr1399     O1414   2.439       .  S
Zr1399     O1405   2.399       .  S
Zr1399     O1406   2.416       .  S
Zr1399     O1407   2.384       .  S
Zr1399     O1408   2.381       .  S
Zr1400     O1419   2.437       .  S
Zr1400     O1412   2.435       .  S
Zr1400     O1413   2.424       .  S
Zr1400     O1406   2.404       .  S
Zr1400     O1407   2.398       .  S
Zr1401     O1403   2.436       .  S
Zr1401     O1425   2.437       .  S
Zr1401     O1427   2.417       .  S
Zr1401     O1405   2.379       .  S
Zr1401     O1408   2.390       .  S
Zr1402     O1428   2.437       .  S
Zr1402     O1429   2.437       .  S
Zr1402     O1404   2.436       .  S
Zr1402     O1405   2.386       .  S
Zr1402     O1406   2.389       .  S
O1403      H1440   0.990       .  S
O1404      H1435   0.991       .  S
O1404      H1449   0.990       .  S
O1406      H1432   0.965       .  S
O1407     Zr1417   2.384       .  S
O1408     Zr1417   2.381       .  S
O1408      H1433   0.966       .  S
C1409      C2392   1.493   1_565  S
C1410      C2353   1.484       .  S
C1411      C3148   1.484       .  S
O1412      H1448   0.990       .  S
O1413      C1415   1.283       .  A
O1414      C1415   1.284       .  A
C1415      C2512   1.477       .  S
O1416     Zr1417   2.439       .  S
O1416      H1445   0.990       .  S
Zr1417     O1420   2.436       .  S
Zr1417     O1421   2.439       .  S
Zr1417     O1422   2.399       .  S
O1418      C1423   1.287       .  A
O1419      H1436   0.990       .  S
O1419      H1451   0.990       .  S
O1420      H1437   0.989       .  S
O1421      H1441   0.990       .  S
O1421      H1450   0.990       .  S
O1422      C1423   1.277       .  A
C1423      C2380   1.481       .  S
O1424      H1443   0.991       .  S
O1424      H1447   0.990       .  S
O1425      H1439   0.990       .  S
O1425      H1446   0.990       .  S
O1426      C1430   1.287       .  A
O1427      C1430   1.282       .  A
O1428      H1438   0.990       .  S
O1429      H1442   0.990       .  S
C1430      C2365   1.484       .  S
Zr1453     O1454   2.441       .  S
Zr1453     O1455   2.463       .  S
Zr1453     O1456   2.462       .  S
Zr1453     O1459   2.468       .  S
Zr1453     O1461   2.388       .  S
Zr1453     O1462   2.392       .  S
Zr1453     O1463   2.419       .  S
Zr1453     O1464   2.397       .  S
O1454      H1510   0.990       .  S
O1454      H1518   0.991       .  S
O1455      C1475   1.289   1_545  A
O1456      C1477   1.288       .  A
O1457     Zr1467   2.409       .  S
O1457      C1476   1.282       .  A
O1458     Zr1466   2.423       .  S
O1458      C1477   1.284       .  A
O1459      C1476   1.290       .  A
O1460     Zr1468   2.388       .  S
O1460      C1475   1.274   1_545  A
O1461     Zr1466   2.396       .  S
O1461     Zr1468   2.384       .  S
O1462     Zr1467   2.388       .  S
O1462     Zr1468   2.382       .  S
O1462      H1497   0.967       .  S
O1463     Zr1466   2.401       .  S
O1463     Zr1483   2.387       .  S
O1463      H1500   0.964       .  S
O1464     Zr1467   2.381       .  S
O1464     Zr1483   2.377       .  S
Zr1465     O1490   2.441       .  S
Zr1465     O1484   2.451       .  S
Zr1465     O1492   2.450       .  S
Zr1465     O1480   2.446       .  S
Zr1465     O1471   2.401       .  S
Zr1465     O1472   2.414       .  S
Zr1465     O1473   2.386       .  S
Zr1465     O1474   2.381       .  S
Zr1466     O1485   2.436       .  S
Zr1466     O1478   2.435       .  S
Zr1466     O1479   2.425       .  S
Zr1466     O1472   2.399       .  S
Zr1466     O1473   2.399       .  S
Zr1467     O1469   2.435       .  S
Zr1467     O1491   2.440       .  S
Zr1467     O1493   2.410       .  S
Zr1467     O1471   2.384       .  S
Zr1467     O1474   2.390       .  S
Zr1468     O1494   2.435       .  S
Zr1468     O1495   2.436       .  S
Zr1468     O1470   2.438       .  S
Zr1468     O1471   2.387       .  S
Zr1468     O1472   2.381       .  S
O1469      H1506   0.990       .  S
O1470      H1501   0.990       .  S
O1470      H1515   0.990       .  S
O1472      H1498   0.965       .  S
O1473     Zr1483   2.382       .  S
O1474     Zr1483   2.381       .  S
O1474      H1499   0.967       .  S
C1475      C2320   1.491       .  S
C1476      C2344   1.491       .  S
C1477      C3088   1.486       .  S
O1478      H1514   0.990       .  S
O1479      C1481   1.283       .  A
O1480      C1481   1.286       .  A
C1481      C2485   1.477       .  S
O1482     Zr1483   2.438       .  S
O1482      H1511   0.990       .  S
Zr1483     O1486   2.439       .  S
Zr1483     O1487   2.441       .  S
Zr1483     O1488   2.397       .  S
O1484      C1489   1.286       .  A
O1485      H1502   0.991       .  S
O1485      H1517   0.990       .  S
O1486      H1503   0.990       .  S
O1487      H1507   0.990       .  S
O1487      H1516   0.990       .  S
O1488      C1489   1.277       .  A
C1489      C2329   1.483       .  S
O1490      H1509   0.990       .  S
O1490      H1513   0.990       .  S
O1491      H1505   0.990       .  S
O1491      H1512   0.990       .  S
O1492      C1496   1.287       .  A
O1493      C1496   1.280       .  A
O1494      H1504   0.990       .  S
O1495      H1508   0.990       .  S
C1496      C2416   1.483       .  S
Zr1519     O1520   2.442       .  S
Zr1519     O1521   2.448       .  S
Zr1519     O1522   2.456       .  S
Zr1519     O1525   2.454       .  S
Zr1519     O1527   2.384       .  S
Zr1519     O1528   2.391       .  S
Zr1519     O1529   2.415       .  S
Zr1519     O1530   2.396       .  S
O1520      H1576   0.991       .  S
O1520      H1584   0.990       .  S
O1521      C1541   1.285       .  A
O1522      C1543   1.287       .  A
O1523     Zr1533   2.409       .  S
O1523      C1542   1.282       .  A
O1524     Zr1532   2.430       .  S
O1524      C1543   1.285       .  A
O1525      C1542   1.287       .  A
O1526     Zr1534   2.397       .  S
O1526      C1541   1.277       .  A
O1527     Zr1532   2.390       .  S
O1527     Zr1534   2.385       .  S
O1528     Zr1533   2.392       .  S
O1528     Zr1534   2.381       .  S
O1528      H1563   0.967       .  S
O1529     Zr1532   2.395       .  S
O1529     Zr1549   2.385       .  S
O1529      H1566   0.964       .  S
O1530     Zr1533   2.380       .  S
O1530     Zr1549   2.380       .  S
Zr1531     O1556   2.441       .  S
Zr1531     O1550   2.453       .  S
Zr1531     O1558   2.457       .  S
Zr1531     O1546   2.455       .  S
Zr1531     O1537   2.397       .  S
Zr1531     O1538   2.415       .  S
Zr1531     O1539   2.382       .  S
Zr1531     O1540   2.385       .  S
Zr1532     O1551   2.435       .  S
Zr1532     O1544   2.436       .  S
Zr1532     O1545   2.410       .  S
Zr1532     O1538   2.403       .  S
Zr1532     O1539   2.398       .  S
Zr1533     O1535   2.435       .  S
Zr1533     O1557   2.437       .  S
Zr1533     O1559   2.414       .  S
Zr1533     O1537   2.382       .  S
Zr1533     O1540   2.391       .  S
Zr1534     O1560   2.438       .  S
Zr1534     O1561   2.435       .  S
Zr1534     O1536   2.437       .  S
Zr1534     O1537   2.381       .  S
Zr1534     O1538   2.388       .  S
O1535      H1572   0.990       .  S
O1536      H1567   0.990       .  S
O1536      H1581   0.990       .  S
O1538      H1564   0.965       .  S
O1539     Zr1549   2.379       .  S
O1540     Zr1549   2.384       .  S
O1540      H1565   0.966       .  S
C1541      C2332   1.484       .  S
C1542      C2305   1.472       .  S
C1543      C3049   1.488       .  S
O1544      H1580   0.990       .  S
O1545      C1547   1.281       .  A
O1546      C1547   1.288       .  A
C1547      C2440   1.487       .  S
O1548     Zr1549   2.439       .  S
O1548      H1577   0.990       .  S
Zr1549     O1552   2.437       .  S
Zr1549     O1553   2.439       .  S
Zr1549     O1554   2.398       .  S
O1550      C1555   1.288       .  A
O1551      H1568   0.990       .  S
O1551      H1583   0.990       .  S
O1552      H1569   0.990       .  S
O1553      H1573   0.990       .  S
O1553      H1582   0.991       .  S
O1554      C1555   1.277       .  A
C1555      C2317   1.490       .  S
O1556      H1575   0.991       .  S
O1556      H1579   0.990       .  S
O1557      H1571   0.990       .  S
O1557      H1578   0.990       .  S
O1558      C1562   1.289       .  A
O1559      C1562   1.282       .  A
O1560      H1570   0.990       .  S
O1561      H1574   0.990       .  S
C1562      C2368   1.490       .  S
Zr1585     O1586   2.442       .  S
Zr1585     O1587   2.459       .  S
Zr1585     O1588   2.455       .  S
Zr1585     O1591   2.469       .  S
Zr1585     O1593   2.388       .  S
Zr1585     O1594   2.390       .  S
Zr1585     O1595   2.422       .  S
Zr1585     O1596   2.392       .  S
O1586      H1642   0.990       .  S
O1586      H1650   0.991       .  S
O1587      C1607   1.288       .  A
O1588      C1609   1.288       .  A
O1589     Zr1599   2.413       .  S
O1589      C1608   1.282       .  A
O1590     Zr1598   2.426       .  S
O1590      C1609   1.284       .  A
O1591      C1608   1.290       .  A
O1592     Zr1600   2.400       .  S
O1592      C1607   1.278       .  A
O1593     Zr1598   2.395       .  S
O1593     Zr1600   2.383       .  S
O1594     Zr1599   2.388       .  S
O1594     Zr1600   2.383       .  S
O1594      H1629   0.966       .  S
O1595     Zr1598   2.401       .  S
O1595     Zr1615   2.384   1_545  S
O1595      H1632   0.964       .  S
O1596     Zr1599   2.380       .  S
O1596     Zr1615   2.376   1_545  S
Zr1597     O1622   2.440       .  S
Zr1597     O1616   2.449       .  S
Zr1597     O1624   2.455       .  S
Zr1597     O1612   2.450       .  S
Zr1597     O1603   2.400   1_565  S
Zr1597     O1604   2.413   1_565  S
Zr1597     O1605   2.382       .  S
Zr1597     O1606   2.381       .  S
Zr1598     O1617   2.438       .  S
Zr1598     O1610   2.434       .  S
Zr1598     O1611   2.430       .  S
Zr1598     O1604   2.396       .  S
Zr1598     O1605   2.396   1_545  S
Zr1599     O1601   2.435       .  S
Zr1599     O1623   2.439       .  S
Zr1599     O1625   2.411       .  S
Zr1599     O1603   2.385       .  S
Zr1599     O1606   2.392   1_545  S
Zr1600     O1626   2.434       .  S
Zr1600     O1627   2.436       .  S
Zr1600     O1602   2.438       .  S
Zr1600     O1603   2.388       .  S
Zr1600     O1604   2.383       .  S
O1601      H1638   0.990       .  S
O1602      H1633   0.990       .  S
O1602      H1647   0.990       .  S
O1604      H1630   0.965       .  S
O1605     Zr1615   2.380       .  S
O1606     Zr1615   2.382       .  S
O1606      H1631   0.966       .  S
C1607      C2272   1.489       .  S
C1608      C2341   1.482       .  S
C1609      C2824   1.483       .  S
O1610      H1646   0.990       .  S
O1611      C1613   1.284   1_545  A
O1612      C1613   1.287       .  A
C1613      C2284   1.488       .  S
O1614     Zr1615   2.438       .  S
O1614      H1643   0.990       .  S
Zr1615     O1618   2.435       .  S
Zr1615     O1619   2.439       .  S
Zr1615     O1620   2.394       .  S
O1616      C1621   1.286       .  A
O1617      H1634   0.990       .  S
O1617      H1649   0.990       .  S
O1618      H1635   0.989       .  S
O1619      H1639   0.990       .  S
O1619      H1648   0.990       .  S
O1620      C1621   1.277       .  A
C1621      C2260   1.486       .  S
O1622      H1641   0.990       .  S
O1622      H1645   0.990       .  S
O1623      H1637   0.990       .  S
O1623      H1644   0.990       .  S
O1624      C1628   1.288       .  A
O1625      C1628   1.282   1_545  A
O1626      H1636   0.990       .  S
O1627      H1640   0.990       .  S
C1628      C2293   1.487       .  S
Zr1651     O1652   2.441       .  S
Zr1651     O1653   2.455       .  S
Zr1651     O1654   2.466       .  S
Zr1651     O1657   2.464       .  S
Zr1651     O1659   2.386       .  S
Zr1651     O1660   2.396       .  S
Zr1651     O1661   2.414       .  S
Zr1651     O1662   2.392       .  S
O1652      H1708   0.990       .  S
O1652      H1716   0.991       .  S
O1653      C1673   1.287       .  A
O1654      C1675   1.289       .  A
O1655     Zr1665   2.403       .  S
O1655      C1674   1.281       .  A
O1656     Zr1664   2.437       .  S
O1656      C1675   1.286       .  A
O1657      C1674   1.290       .  A
O1658     Zr1666   2.392       .  S
O1658      C1673   1.277       .  A
O1659     Zr1664   2.389       .  S
O1659     Zr1666   2.385       .  S
O1660     Zr1665   2.391       .  S
O1660     Zr1666   2.379       .  S
O1660      H1695   0.966       .  S
O1661     Zr1664   2.400       .  S
O1661     Zr1681   2.382       .  S
O1661      H1698   0.963       .  S
O1662     Zr1665   2.385       .  S
O1662     Zr1681   2.373       .  S
Zr1663     O1688   2.443       .  S
Zr1663     O1682   2.464       .  S
Zr1663     O1690   2.453       .  S
Zr1663     O1678   2.444       .  S
Zr1663     O1669   2.403       .  S
Zr1663     O1670   2.419       .  S
Zr1663     O1671   2.384       .  S
Zr1663     O1672   2.378       .  S
Zr1664     O1683   2.436       .  S
Zr1664     O1676   2.435       .  S
Zr1664     O1677   2.424       .  S
Zr1664     O1670   2.402       .  S
Zr1664     O1671   2.404       .  S
Zr1665     O1667   2.436       .  S
Zr1665     O1689   2.438       .  S
Zr1665     O1691   2.424       .  S
Zr1665     O1669   2.378       .  S
Zr1665     O1672   2.391       .  S
Zr1666     O1692   2.436       .  S
Zr1666     O1693   2.436       .  S
Zr1666     O1668   2.437       .  S
Zr1666     O1669   2.386       .  S
Zr1666     O1670   2.386       .  S
O1667      H1704   0.990       .  S
O1668      H1699   0.991       .  S
O1668      H1713   0.990       .  S
O1670      H1696   0.966       .  S
O1671     Zr1681   2.379       .  S
O1672     Zr1681   2.383       .  S
O1672      H1697   0.966       .  S
C1673      C2257   1.488       .  S
C1674      C2308   1.488       .  S
C1675      C2788   1.493       .  S
O1676      H1712   0.990       .  S
O1677      C1679   1.283       .  A
O1678      C1679   1.286       .  A
C1679      C2233   1.486       .  S
O1680     Zr1681   2.438       .  S
O1680      H1709   0.990       .  S
Zr1681     O1684   2.437       .  S
Zr1681     O1685   2.439       .  S
Zr1681     O1686   2.391       .  S
O1682      C1687   1.289       .  A
O1683      H1700   0.990       .  S
O1683      H1715   0.990       .  S
O1684      H1701   0.990       .  S
O1685      H1705   0.990       .  S
O1685      H1714   0.990       .  S
O1686      C1687   1.276       .  A
C1687      C2269   1.489       .  S
O1688      H1707   0.990       .  S
O1688      H1711   0.990       .  S
O1689      H1703   0.990       .  S
O1689      H1710   0.990       .  S
O1690      C1694   1.287       .  A
O1691      C1694   1.283       .  A
O1692      H1702   0.990       .  S
O1693      H1706   0.990       .  S
C1694      C2245   1.485       .  S
Zr1717     O1718   2.441       .  S
Zr1717     O1719   2.452       .  S
Zr1717     O1720   2.468       .  S
Zr1717     O1723   2.467       .  S
Zr1717     O1725   2.384       .  S
Zr1717     O1726   2.394       .  S
Zr1717     O1727   2.418       .  S
Zr1717     O1728   2.398       .  S
O1718      H1774   0.990       .  S
O1718      H1782   0.990       .  S
O1719      C1739   1.286       .  A
O1720      C1741   1.290       .  A
O1721     Zr1731   2.399       .  S
O1721      C1740   1.280       .  A
O1722     Zr1730   2.417       .  S
O1722      C1741   1.282       .  A
O1723      C1740   1.291       .  A
O1724     Zr1732   2.399       .  S
O1724      C1739   1.278       .  A
O1725     Zr1730   2.390       .  S
O1725     Zr1732   2.383       .  S
O1726     Zr1731   2.392       .  S
O1726     Zr1732   2.380       .  S
O1726      H1761   0.967       .  S
O1727     Zr1730   2.396       .  S
O1727     Zr1747   2.393       .  S
O1727      H1764   0.964       .  S
O1728     Zr1731   2.384       .  S
O1728     Zr1747   2.381       .  S
Zr1729     O1754   2.441       .  S
Zr1729     O1748   2.451       .  S
Zr1729     O1756   2.460       .  S
Zr1729     O1744   2.455       .  S
Zr1729     O1735   2.402       .  S
Zr1729     O1736   2.415       .  S
Zr1729     O1737   2.386       .  S
Zr1729     O1738   2.382       .  S
Zr1730     O1749   2.436       .  S
Zr1730     O1742   2.437       .  S
Zr1730     O1743   2.405       .  S
Zr1730     O1736   2.401       .  S
Zr1730     O1737   2.396       .  S
Zr1731     O1733   2.436       .  S
Zr1731     O1755   2.436       .  S
Zr1731     O1757   2.415       .  S
Zr1731     O1735   2.383       .  S
Zr1731     O1738   2.386       .  S
Zr1732     O1758   2.435       .  S
Zr1732     O1759   2.435       .  S
Zr1732     O1734   2.437       .  S
Zr1732     O1735   2.386       .  S
Zr1732     O1736   2.383       .  S
O1733      H1770   0.990       .  S
O1734      H1765   0.990       .  S
O1734      H1779   0.990       .  S
O1736      H1762   0.965       .  S
O1737     Zr1747   2.382       .  S
O1738     Zr1747   2.384       .  S
O1738      H1763   0.966       .  S
C1739      C2212   1.486       .  S
C1740      C2404   1.489       .  S
C1741      C2740   1.490       .  S
O1742      H1778   0.990       .  S
O1743      C1745   1.279       .  A
O1744      C1745   1.288       .  A
C1745      C2221   1.483       .  S
O1746     Zr1747   2.439       .  S
O1746      H1775   0.990       .  S
Zr1747     O1750   2.439       .  S
Zr1747     O1751   2.439       .  S
Zr1747     O1752   2.404       .  S
O1748      C1753   1.286       .  A
O1749      H1766   0.990       .  S
O1749      H1781   0.990       .  S
O1750      H1767   0.990       .  S
O1751      H1771   0.990       .  S
O1751      H1780   0.990       .  S
O1752      C1753   1.279       .  A
C1753      C2197   1.487       .  S
O1754      H1773   0.990       .  S
O1754      H1777   0.990       .  S
O1755      H1769   0.990       .  S
O1755      H1776   0.990       .  S
O1756      C1760   1.289       .  A
O1757      C1760   1.282       .  A
O1758      H1768   0.990       .  S
O1759      H1772   0.990       .  S
C1760      C2248   1.495       .  S
Zr1783     O1784   2.443       .  S
Zr1783     O1785   2.455       .  S
Zr1783     O1786   2.467       .  S
Zr1783     O1789   2.457       .  S
Zr1783     O1791   2.383       .  S
Zr1783     O1792   2.392       .  S
Zr1783     O1793   2.415       .  S
Zr1783     O1794   2.403       .  S
O1784      H1840   0.990       .  S
O1784      H1848   0.990       .  S
O1785      C1805   1.287       .  A
O1786      C1807   1.289       .  A
O1787     Zr1797   2.399       .  S
O1787      C1806   1.280       .  A
O1788     Zr1796   2.420       .  S
O1788      C1807   1.283       .  A
O1789      C1806   1.288       .  A
O1790     Zr1798   2.399       .  S
O1790      C1805   1.278       .  A
O1791     Zr1796   2.397       .  S
O1791     Zr1798   2.384       .  S
O1792     Zr1797   2.392       .  S
O1792     Zr1798   2.381       .  S
O1792      H1827   0.967       .  S
O1793     Zr1796   2.397       .  S
O1793     Zr1813   2.393       .  S
O1793      H1830   0.964       .  S
O1794     Zr1797   2.387       .  S
O1794     Zr1813   2.381       .  S
Zr1795     O1820   2.442       .  S
Zr1795     O1814   2.446   1_565  S
Zr1795     O1822   2.455       .  S
Zr1795     O1810   2.454       .  S
Zr1795     O1801   2.400       .  S
Zr1795     O1802   2.414       .  S
Zr1795     O1803   2.383       .  S
Zr1795     O1804   2.384       .  S
Zr1796     O1815   2.437       .  S
Zr1796     O1808   2.435       .  S
Zr1796     O1809   2.421       .  S
Zr1796     O1802   2.402       .  S
Zr1796     O1803   2.392       .  S
Zr1797     O1799   2.436       .  S
Zr1797     O1821   2.436       .  S
Zr1797     O1823   2.416       .  S
Zr1797     O1801   2.377       .  S
Zr1797     O1804   2.387       .  S
Zr1798     O1824   2.438       .  S
Zr1798     O1825   2.435       .  S
Zr1798     O1800   2.435       .  S
Zr1798     O1801   2.381       .  S
Zr1798     O1802   2.387       .  S
O1799      H1836   0.990       .  S
O1800      H1831   0.990       .  S
O1800      H1845   0.990       .  S
O1802      H1828   0.965       .  S
O1803     Zr1813   2.382       .  S
O1804     Zr1813   2.381       .  S
O1804      H1829   0.967       .  S
C1805      C2200   1.487       .  S
C1806      C2356   1.474       .  S
C1807      C2716   1.495       .  S
O1808      H1844   0.990       .  S
O1809      C1811   1.283       .  A
O1810      C1811   1.287       .  A
C1811      C2185   1.484       .  S
O1812     Zr1813   2.439       .  S
O1812      H1841   0.990       .  S
Zr1813     O1816   2.436       .  S
Zr1813     O1817   2.440       .  S
Zr1813     O1818   2.404   1_565  S
O1814      C1819   1.285       .  A
O1815      H1832   0.990       .  S
O1815      H1847   0.990       .  S
O1816      H1833   0.990   1_565  S
O1817      H1837   0.990   1_565  S
O1817      H1846   0.990       .  S
O1818      C1819   1.279       .  A
C1819      C2209   1.485       .  S
O1820      H1839   0.990       .  S
O1820      H1843   0.990   1_565  S
O1821      H1835   0.990       .  S
O1821      H1842   0.990       .  S
O1822      C1826   1.289       .  A
O1823      C1826   1.282       .  A
O1824      H1834   0.990       .  S
O1825      H1838   0.990       .  S
C1826      C2296   1.487       .  S
Zr1849     O1850   2.442       .  S
Zr1849     O1851   2.472       .  S
Zr1849     O1852   2.455       .  S
Zr1849     O1855   2.466       .  S
Zr1849     O1857   2.385       .  S
Zr1849     O1858   2.392       .  S
Zr1849     O1859   2.420       .  S
Zr1849     O1860   2.396       .  S
O1850      H1906   0.990       .  S
O1850      H1914   0.991       .  S
O1851      C1871   1.291       .  A
O1852      C1873   1.287       .  A
O1853     Zr1863   2.403       .  S
O1853      C1872   1.281       .  A
O1854     Zr1862   2.431       .  S
O1854      C1873   1.285       .  A
O1855      C1872   1.290       .  A
O1856     Zr1864   2.393       .  S
O1856      C1871   1.276       .  A
O1857     Zr1862   2.396       .  S
O1857     Zr1864   2.386       .  S
O1858     Zr1863   2.394       .  S
O1858     Zr1864   2.379       .  S
O1858      H1893   0.966       .  S
O1859     Zr1862   2.398       .  S
O1859     Zr1879   2.385   1_545  S
O1859      H1896   0.964       .  S
O1860     Zr1863   2.379       .  S
O1860     Zr1879   2.374   1_545  S
Zr1861     O1886   2.442       .  S
Zr1861     O1880   2.457       .  S
Zr1861     O1888   2.473       .  S
Zr1861     O1876   2.460       .  S
Zr1861     O1867   2.398   1_565  S
Zr1861     O1868   2.416   1_565  S
Zr1861     O1869   2.388       .  S
Zr1861     O1870   2.386       .  S
Zr1862     O1881   2.435   1_545  S
Zr1862     O1874   2.435       .  S
Zr1862     O1875   2.423       .  S
Zr1862     O1868   2.406       .  S
Zr1862     O1869   2.398   1_545  S
Zr1863     O1865   2.435   1_545  S
Zr1863     O1887   2.440       .  S
Zr1863     O1889   2.411       .  S
Zr1863     O1867   2.380       .  S
Zr1863     O1870   2.392   1_545  S
Zr1864     O1890   2.437       .  S
Zr1864     O1891   2.435       .  S
Zr1864     O1866   2.437       .  S
Zr1864     O1867   2.381       .  S
Zr1864     O1868   2.382       .  S
O1865      H1902   0.990   1_565  S
O1866      H1897   0.990       .  S
O1866      H1911   0.990       .  S
O1868      H1894   0.965       .  S
O1869     Zr1879   2.383       .  S
O1870     Zr1879   2.384       .  S
O1870      H1895   0.967       .  S
C1871      C2161   1.494       .  S
C1872      C2557   1.478       .  S
C1873      C2668   1.487       .  S
O1874      H1910   0.990       .  S
O1875      C1877   1.283   1_545  A
O1876      C1877   1.289       .  A
C1877      C2188   1.486       .  S
O1878     Zr1879   2.439       .  S
O1878      H1907   0.991       .  S
Zr1879     O1882   2.437       .  S
Zr1879     O1883   2.440       .  S
Zr1879     O1884   2.388       .  S
O1880      C1885   1.287       .  A
O1881      H1898   0.990   1_565  S
O1881      H1913   0.990       .  S
O1882      H1899   0.990       .  S
O1883      H1903   0.990       .  S
O1883      H1912   0.990       .  S
O1884      C1885   1.276       .  A
C1885      C2149   1.478       .  S
O1886      H1905   0.991       .  S
O1886      H1909   0.990       .  S
O1887      H1901   0.990       .  S
O1887      H1908   0.990       .  S
O1888      C1892   1.292       .  A
O1889      C1892   1.281   1_545  A
O1890      H1900   0.990       .  S
O1891      H1904   0.990       .  S
C1892      C2173   1.495       .  S
Zr1915     O1916   2.442       .  S
Zr1915     O1917   2.445       .  S
Zr1915     O1918   2.442       .  S
Zr1915     O1921   2.452       .  S
Zr1915     O1923   2.382       .  S
Zr1915     O1924   2.389       .  S
Zr1915     O1925   2.414       .  S
Zr1915     O1926   2.392       .  S
O1916      H1972   0.990       .  S
O1916      H1980   0.990       .  S
O1917      C1937   1.286       .  A
O1918      C1939   1.284       .  A
O1919     Zr1929   2.401       .  S
O1919      C1938   1.280       .  A
O1920     Zr1928   2.430       .  S
O1920      C1939   1.285       .  A
O1921      C1938   1.287       .  A
O1922     Zr1930   2.398       .  S
O1922      C1937   1.276       .  A
O1923     Zr1928   2.394       .  S
O1923     Zr1930   2.383       .  S
O1924     Zr1929   2.392       .  S
O1924     Zr1930   2.378       .  S
O1924      H1959   0.967       .  S
O1925     Zr1928   2.390       .  S
O1925     Zr1945   2.382       .  S
O1925      H1962   0.964       .  S
O1926     Zr1929   2.380       .  S
O1926     Zr1945   2.378       .  S
Zr1927     O1952   2.443       .  S
Zr1927     O1946   2.470       .  S
Zr1927     O1954   2.455       .  S
Zr1927     O1942   2.449       .  S
Zr1927     O1933   2.407       .  S
Zr1927     O1934   2.423       .  S
Zr1927     O1935   2.385       .  S
Zr1927     O1936   2.381       .  S
Zr1928     O1947   2.436       .  S
Zr1928     O1940   2.435       .  S
Zr1928     O1941   2.418       .  S
Zr1928     O1934   2.402       .  S
Zr1928     O1935   2.398       .  S
Zr1929     O1931   2.435       .  S
Zr1929     O1953   2.440       .  S
Zr1929     O1955   2.405       .  S
Zr1929     O1933   2.382       .  S
Zr1929     O1936   2.391       .  S
Zr1930     O1956   2.435       .  S
Zr1930     O1957   2.436       .  S
Zr1930     O1932   2.437       .  S
Zr1930     O1933   2.393       .  S
Zr1930     O1934   2.377       .  S
O1931      H1968   0.990       .  S
O1932      H1963   0.990       .  S
O1932      H1977   0.990       .  S
O1934      H1960   0.964       .  S
O1935     Zr1945   2.385       .  S
O1936     Zr1945   2.386       .  S
O1936      H1961   0.966       .  S
C1937      C2152   1.478       .  S
C1938      C2500   1.469       .  S
C1939      C2644   1.484       .  S
O1940      H1976   0.990       .  S
O1941      C1943   1.282       .  A
O1942      C1943   1.286       .  A
C1943      C2224   1.471       .  S
O1944     Zr1945   2.439       .  S
O1944      H1973   0.990       .  S
Zr1945     O1948   2.437       .  S
Zr1945     O1949   2.438       .  S
Zr1945     O1950   2.399       .  S
O1946      C1951   1.291       .  A
O1947      H1964   0.990       .  S
O1947      H1979   0.990       .  S
O1948      H1965   0.990       .  S
O1949      H1969   0.990       .  S
O1949      H1978   0.990       .  S
O1950      C1951   1.277       .  A
C1951      C2164   1.494       .  S
O1952      H1971   0.991       .  S
O1952      H1975   0.990       .  S
O1953      H1967   0.990       .  S
O1953      H1974   0.990       .  S
O1954      C1958   1.288       .  A
O1955      C1958   1.280       .  A
O1956      H1966   0.990       .  S
O1957      H1970   0.990       .  S
C1958      C2137   1.486       .  S
Zr1981     O1982   2.442       .  S
Zr1981     O1983   2.450       .  S
Zr1981     O1984   2.455       .  S
Zr1981     O1987   2.448       .  S
Zr1981     O1989   2.381       .  S
Zr1981     O1990   2.391       .  S
Zr1981     O1991   2.414       .  S
Zr1981     O1992   2.399       .  S
O1982      H2038   0.990       .  S
O1982      H2046   0.990       .  S
O1983      C2003   1.286       .  A
O1984      C2005   1.287       .  A
O1985     Zr1995   2.402       .  S
O1985      C2004   1.281       .  A
O1986     Zr1994   2.418       .  S
O1986      C2005   1.283       .  A
O1987      C2004   1.286       .  A
O1988     Zr1996   2.400       .  S
O1988      C2003   1.277       .  A
O1989     Zr1994   2.392       .  S
O1989     Zr1996   2.384       .  S
O1990     Zr1995   2.389       .  S
O1990     Zr1996   2.378       .  S
O1990      H2025   0.967       .  S
O1991     Zr1994   2.397       .  S
O1991     Zr2011   2.387       .  S
O1991      H2028   0.963       .  S
O1992     Zr1995   2.383       .  S
O1992     Zr2011   2.378       .  S
Zr1993     O2018   2.442       .  S
Zr1993     O2012   2.454       .  S
Zr1993     O2020   2.446       .  S
Zr1993     O2008   2.448       .  S
Zr1993     O1999   2.402       .  S
Zr1993     O2000   2.416       .  S
Zr1993     O2001   2.380       .  S
Zr1993     O2002   2.384       .  S
Zr1994     O2013   2.435       .  S
Zr1994     O2006   2.435       .  S
Zr1994     O2007   2.415       .  S
Zr1994     O2000   2.399       .  S
Zr1994     O2001   2.396       .  S
Zr1995     O1997   2.435       .  S
Zr1995     O2019   2.440       .  S
Zr1995     O2021   2.410       .  S
Zr1995     O1999   2.380       .  S
Zr1995     O2002   2.392       .  S
Zr1996     O2022   2.436       .  S
Zr1996     O2023   2.436       .  S
Zr1996     O1998   2.437       .  S
Zr1996     O1999   2.388       .  S
Zr1996     O2000   2.385       .  S
O1997      H2034   0.990       .  S
O1998      H2029   0.990       .  S
O1998      H2043   0.990       .  S
O2000      H2026   0.965       .  S
O2001     Zr2011   2.380       .  S
O2002     Zr2011   2.383       .  S
O2002      H2027   0.966       .  S
C2003      C2125   1.483       .  S
C2004      C2476   1.469       .  S
C2005      C2608   1.485       .  S
O2006      H2042   0.990       .  S
O2007      C2009   1.281       .  A
O2008      C2009   1.286       .  A
C2009      C2236   1.473       .  S
O2010     Zr2011   2.439       .  S
O2010      H2039   0.990       .  S
Zr2011     O2014   2.437       .  S
Zr2011     O2015   2.440       .  S
Zr2011     O2016   2.400       .  S
O2012      C2017   1.287       .  A
O2013      H2030   0.990       .  S
O2013      H2045   0.990       .  S
O2014      H2031   0.990       .  S
O2015      H2035   0.990       .  S
O2015      H2044   0.990       .  S
O2016      C2017   1.278       .  A
C2017      C2116   1.491       .  S
O2018      H2037   0.990       .  S
O2018      H2041   0.990       .  S
O2019      H2033   0.990       .  S
O2019      H2040   0.990       .  S
O2020      C2024   1.286       .  A
O2021      C2024   1.280       .  A
O2022      H2032   0.990       .  S
O2023      H2036   0.990       .  S
C2024      C2140   1.479       .  S
Zr2047     O2048   2.443       .  S
Zr2047     O2049   2.459       .  S
Zr2047     O2050   2.459       .  S
Zr2047     O2053   2.452       .  S
Zr2047     O2055   2.383       .  S
Zr2047     O2056   2.393       .  S
Zr2047     O2057   2.420       .  S
Zr2047     O2058   2.401       .  S
O2048      H2104   0.990       .  S
O2048      H2112   0.990       .  S
O2049      C2069   1.287       .  A
O2050      C2071   1.288       .  A
O2051     Zr2061   2.420       .  S
O2051      C2070   1.283       .  A
O2052     Zr2060   2.420       .  S
O2052      C2071   1.282       .  A
O2053      C2070   1.287       .  A
O2054     Zr2062   2.396       .  S
O2054      C2069   1.277       .  A
O2055     Zr2060   2.391       .  S
O2055     Zr2062   2.382       .  S
O2056     Zr2061   2.394       .  S
O2056     Zr2062   2.381       .  S
O2056      H2091   0.967       .  S
O2057     Zr2060   2.398       .  S
O2057     Zr2077   2.387       .  S
O2057      H2094   0.964       .  S
O2058     Zr2061   2.386       .  S
O2058     Zr2077   2.381       .  S
Zr2059     O2084   2.441       .  S
Zr2059     O2078   2.456   1_565  S
Zr2059     O2086   2.458       .  S
Zr2059     O2074   2.456       .  S
Zr2059     O2065   2.402       .  S
Zr2059     O2066   2.414       .  S
Zr2059     O2067   2.380       .  S
Zr2059     O2068   2.384       .  S
Zr2060     O2079   2.436       .  S
Zr2060     O2072   2.434       .  S
Zr2060     O2073   2.414       .  S
Zr2060     O2066   2.399       .  S
Zr2060     O2067   2.394       .  S
Zr2061     O2063   2.435       .  S
Zr2061     O2085   2.436       .  S
Zr2061     O2087   2.427       .  S
Zr2061     O2065   2.384       .  S
Zr2061     O2068   2.391       .  S
Zr2062     O2088   2.436       .  S
Zr2062     O2089   2.435       .  S
Zr2062     O2064   2.438       .  S
Zr2062     O2065   2.385       .  S
Zr2062     O2066   2.382       .  S
O2063      H2100   0.990       .  S
O2064      H2095   0.990       .  S
O2064      H2109   0.990       .  S
O2066      H2092   0.965       .  S
O2067     Zr2077   2.379       .  S
O2068     Zr2077   2.382       .  S
O2068      H2093   0.966       .  S
C2069      C2113   1.491       .  S
C2070      C2425   1.474       .  S
C2071      C2596   1.485       .  S
O2072      H2108   0.990       .  S
O2073      C2075   1.281       .  A
O2074      C2075   1.289       .  A
C2075      C2281   1.481       .  S
O2076     Zr2077   2.437       .  S
O2076      H2105   0.990       .  S
Zr2077     O2080   2.438       .  S
Zr2077     O2081   2.439       .  S
Zr2077     O2082   2.389   1_565  S
O2078      C2083   1.288       .  A
O2079      H2096   0.991       .  S
O2079      H2111   0.990       .  S
O2080      H2097   0.990   1_565  S
O2081      H2101   0.990   1_565  S
O2081      H2110   0.990       .  S
O2082      C2083   1.276       .  A
C2083      C2128   1.480       .  S
O2084      H2103   0.991       .  S
O2084      H2107   0.990   1_565  S
O2085      H2099   0.990       .  S
O2085      H2106   0.990       .  S
O2086      C2090   1.289       .  A
O2087      C2090   1.285       .  A
O2088      H2098   0.990       .  S
O2089      H2102   0.990       .  S
C2090      C2176   1.493       .  S
C2113      C2114   1.410       .  A
C2113      C2118   1.410       .  A
C2114      C2115   1.398       .  A
C2114      H2119   1.083       .  S
C2115      C2116   1.409       .  A
C2115      O2120   1.372       .  S
C2116      C2117   1.411       .  A
C2117      C2118   1.402       .  A
C2117      H2121   1.083       .  S
C2118      O2122   1.371       .  S
O2120      H2124   0.992       .  S
O2122      H2123   0.992       .  S
C2125      C2126   1.403       .  A
C2125      C2130   1.415       .  A
C2126      C2127   1.398       .  A
C2126      H2131   1.084       .  S
C2127      C2128   1.415       .  A
C2127      O2132   1.372       .  S
C2128      C2129   1.401       .  A
C2129      C2130   1.398       .  A
C2129      H2133   1.084       .  S
C2130      O2134   1.372       .  S
O2132      H2136   0.992       .  S
O2134      H2135   0.992       .  S
C2137      C2138   1.407       .  A
C2137      C2142   1.412       .  A
C2138      C2139   1.394       .  A
C2138      H2143   1.084       .  S
C2139      C2140   1.409       .  A
C2139      O2144   1.373       .  S
C2140      C2141   1.405       .  A
C2141      C2142   1.404       .  A
C2141      H2145   1.084       .  S
C2142      O2146   1.371       .  S
O2144      H2148   0.992       .  S
O2146      H2147   0.992       .  S
C2149      C2150   1.402       .  A
C2149      C2154   1.413       .  A
C2150      C2151   1.401       .  A
C2150      H2155   1.084       .  S
C2151      C2152   1.414       .  A
C2151      O2156   1.372       .  S
C2152      C2153   1.400       .  A
C2153      C2154   1.395       .  A
C2153      H2157   1.084       .  S
C2154      O2158   1.372       .  S
O2156      H2160   0.992       .  S
O2158      H2159   0.992       .  S
C2161      C2162   1.403       .  A
C2161      C2166   1.419       .  A
C2162      C2163   1.405       .  A
C2162      H2167   1.083       .  S
C2163      C2164   1.419       .  A
C2163      O2168   1.372       .  S
C2164      C2165   1.401       .  A
C2165      C2166   1.400       .  A
C2165      H2169   1.084       .  S
C2166      O2170   1.372       .  S
O2168      H2172   0.992       .  S
O2170      H2171   0.992       .  S
C2173      C2174   1.408       .  A
C2173      C2178   1.416       .  A
C2174      C2175   1.410       .  A
C2174      H2179   1.083       .  S
C2175      C2176   1.413       .  A
C2175      O2180   1.371       .  S
C2176      C2177   1.404       .  A
C2177      C2178   1.398       .  A
C2177      H2181   1.084       .  S
C2178      O2182   1.372       .  S
O2180      H2184   0.992       .  S
O2182      H2183   0.992   1_565  S
C2185      C2186   1.406       .  A
C2185      C2190   1.410       .  A
C2186      C2187   1.402   1_655  A
C2186      H2191   1.084       .  S
C2187      C2188   1.413       .  A
C2187      O2192   1.372       .  S
C2188      C2189   1.406       .  A
C2189      C2190   1.400   1_455  A
C2189      H2193   1.083       .  S
C2190      O2194   1.371       .  S
O2192      H2196   0.992       .  S
O2194      H2195   0.992       .  S
C2197      C2198   1.409       .  A
C2197      C2202   1.410       .  A
C2198      C2199   1.401       .  A
C2198      H2203   1.083       .  S
C2199      C2200   1.409       .  A
C2199      O2204   1.372       .  S
C2200      C2201   1.408       .  A
C2201      C2202   1.400       .  A
C2201      H2205   1.083       .  S
C2202      O2206   1.372       .  S
O2204      H2208   0.992       .  S
O2206      H2207   0.992       .  S
C2209      C2210   1.408       .  A
C2209      C2214   1.410       .  A
C2210      C2211   1.398       .  A
C2210      H2215   1.083       .  S
C2211      C2212   1.410       .  A
C2211      O2216   1.371       .  S
C2212      C2213   1.409       .  A
C2213      C2214   1.399       .  A
C2213      H2217   1.083       .  S
C2214      O2218   1.372       .  S
O2216      H2220   0.992       .  S
O2218      H2219   0.992       .  S
C2221      C2222   1.406       .  A
C2221      C2226   1.416       .  A
C2222      C2223   1.398   1_655  A
C2222      H2227   1.083       .  S
C2223      C2224   1.410       .  A
C2223      O2228   1.372       .  S
C2224      C2225   1.400       .  A
C2225      C2226   1.396   1_455  A
C2225      H2229   1.084       .  S
C2226      O2230   1.372       .  S
O2228      H2232   0.992       .  S
O2230      H2231   0.992       .  S
C2233      C2234   1.408       .  A
C2233      C2238   1.414       .  A
C2234      C2235   1.398   1_655  A
C2234      H2239   1.083       .  S
C2235      C2236   1.407       .  A
C2235      O2240   1.373       .  S
C2236      C2237   1.402       .  A
C2237      C2238   1.399   1_455  A
C2237      H2241   1.084       .  S
C2238      O2242   1.371       .  S
O2240      H2244   0.992       .  S
O2242      H2243   0.992       .  S
C2245      C2246   1.402       .  A
C2245      C2250   1.410       .  A
C2246      C2247   1.397       .  A
C2246      H2251   1.084       .  S
C2247      C2248   1.416       .  A
C2247      O2252   1.372       .  S
C2248      C2249   1.410       .  A
C2249      C2250   1.409       .  A
C2249      H2253   1.083       .  S
C2250      O2254   1.372       .  S
O2252      H2256   0.992       .  S
O2254      H2255   0.992       .  S
C2257      C2258   1.410       .  A
C2257      C2262   1.409       .  A
C2258      C2259   1.396       .  A
C2258      H2263   1.083       .  S
C2259      C2260   1.409       .  A
C2259      O2264   1.372       .  S
C2260      C2261   1.410       .  A
C2261      C2262   1.401       .  A
C2261      H2265   1.083       .  S
C2262      O2266   1.372       .  S
O2264      H2268   0.992       .  S
O2266      H2267   0.992       .  S
C2269      C2270   1.411       .  A
C2269      C2274   1.408       .  A
C2270      C2271   1.400       .  A
C2270      H2275   1.083       .  S
C2271      C2272   1.409       .  A
C2271      O2276   1.372       .  S
C2272      C2273   1.411       .  A
C2273      C2274   1.400       .  A
C2273      H2277   1.083       .  S
C2274      O2278   1.371       .  S
O2276      H2280   0.992       .  S
O2278      H2279   0.992       .  S
C2281      C2282   1.401       .  A
C2281      C2286   1.412       .  A
C2282      C2283   1.398   1_455  A
C2282      H2287   1.084       .  S
C2283      C2284   1.413       .  A
C2283      O2288   1.371       .  S
C2284      C2285   1.408       .  A
C2285      C2286   1.403   1_655  A
C2285      H2289   1.084       .  S
C2286      O2290   1.372       .  S
O2288      H2292   0.992       .  S
O2290      H2291   0.992       .  S
C2293      C2294   1.405       .  A
C2293      C2298   1.411       .  A
C2294      C2295   1.397       .  A
C2294      H2299   1.084       .  S
C2295      C2296   1.412       .  A
C2295      O2300   1.372       .  S
C2296      C2297   1.407       .  A
C2297      C2298   1.405       .  A
C2297      H2301   1.083       .  S
C2298      O2302   1.371       .  S
O2300      H2304   0.992       .  S
O2302      H2303   0.992       .  S
C2305      C2306   1.404       .  A
C2305      C2310   1.404       .  A
C2306      C2307   1.405       .  A
C2306      H2311   1.084       .  S
C2307      C2308   1.414       .  A
C2307      O2312   1.371       .  S
C2308      C2309   1.409       .  A
C2309      C2310   1.392       .  A
C2309      H2313   1.083       .  S
C2310      O2314   1.373       .  S
O2312      H2316   0.992       .  S
O2314      H2315   0.992       .  S
C2317      C2318   1.402       .  A
C2317      C2322   1.418       .  A
C2318      C2319   1.397       .  A
C2318      H2323   1.083       .  S
C2319      C2320   1.419       .  A
C2319      O2324   1.372       .  S
C2320      C2321   1.403       .  A
C2321      C2322   1.401       .  A
C2321      H2325   1.083       .  S
C2322      O2326   1.372       .  S
O2324      H2328   0.992       .  S
O2326      H2327   0.992       .  S
C2329      C2330   1.408       .  A
C2329      C2334   1.408       .  A
C2330      C2331   1.398       .  A
C2330      H2335   1.084       .  S
C2331      C2332   1.408       .  A
C2331      O2336   1.372       .  S
C2332      C2333   1.409       .  A
C2333      C2334   1.400       .  A
C2333      H2337   1.084       .  S
C2334      O2338   1.372       .  S
O2336      H2340   0.992       .  S
O2338      H2339   0.992       .  S
C2341      C2342   1.407       .  A
C2341      C2346   1.408       .  A
C2342      C2343   1.408       .  A
C2342      H2347   1.083       .  S
C2343      C2344   1.414       .  A
C2343      O2348   1.371       .  S
C2344      C2345   1.408       .  A
C2345      C2346   1.393       .  A
C2345      H2349   1.083       .  S
C2346      O2350   1.372       .  S
O2348      H2352   0.992       .  S
O2350      H2351   0.992       .  S
C2353      C2354   1.406       .  A
C2353      C2358   1.413       .  A
C2354      C2355   1.391       .  A
C2354      H2359   1.084       .  S
C2355      C2356   1.407       .  A
C2355      O2360   1.373       .  S
C2356      C2357   1.404       .  A
C2357      C2358   1.405       .  A
C2357      H2361   1.084       .  S
C2358      O2362   1.371       .  S
O2360      H2364   0.992       .  S
O2362      H2363   0.992       .  S
C2365      C2366   1.403       .  A
C2365      C2370   1.411       .  A
C2366      C2367   1.396       .  A
C2366      H2371   1.084       .  S
C2367      C2368   1.414       .  A
C2367      O2372   1.372       .  S
C2368      C2369   1.408       .  A
C2369      C2370   1.406       .  A
C2369      H2373   1.083       .  S
C2370      O2374   1.372       .  S
O2372      H2376   0.992       .  S
O2374      H2375   0.992       .  S
C2377      C2378   1.402       .  A
C2377      C2382   1.414       .  A
C2378      C2379   1.399       .  A
C2378      H2383   1.084       .  S
C2379      C2380   1.413       .  A
C2379      O2384   1.372       .  S
C2380      C2381   1.402       .  A
C2381      C2382   1.399       .  A
C2381      H2385   1.084       .  S
C2382      O2386   1.372       .  S
O2384      H2388   0.992       .  S
O2386      H2387   0.992       .  S
C2389      C2390   1.410       .  A
C2389      C2394   1.411       .  A
C2390      C2391   1.400       .  A
C2390      H2395   1.083       .  S
C2391      C2392   1.411       .  A
C2391      O2396   1.371       .  S
C2392      C2393   1.411       .  A
C2393      C2394   1.401       .  A
C2393      H2397   1.083       .  S
C2394      O2398   1.372       .  S
O2396      H2400   0.992       .  S
O2398      H2399   0.992       .  S
C2401      C2402   1.404       .  A
C2401      C2406   1.405       .  A
C2402      C2403   1.404       .  A
C2402      H2407   1.084       .  S
C2403      C2404   1.413       .  A
C2403      O2408   1.371       .  S
C2404      C2405   1.410       .  A
C2405      C2406   1.394       .  A
C2405      H2409   1.083       .  S
C2406      O2410   1.373       .  S
O2408      H2412   0.992       .  S
O2410      H2411   0.992       .  S
C2413      C2414   1.406       .  A
C2413      C2418   1.413       .  A
C2414      C2415   1.396       .  A
C2414      H2419   1.084       .  S
C2415      C2416   1.410       .  A
C2415      O2420   1.373       .  S
C2416      C2417   1.405       .  A
C2417      C2418   1.405       .  A
C2417      H2421   1.084       .  S
C2418      O2422   1.371       .  S
O2420      H2424   0.992       .  S
O2422      H2423   0.992       .  S
C2425      C2426   1.404       .  A
C2425      C2430   1.403       .  A
C2426      C2427   1.405       .  A
C2426      H2431   1.084       .  S
C2427      C2428   1.414       .  A
C2427      O2432   1.371       .  S
C2428      C2429   1.411       .  A
C2429      C2430   1.394       .  A
C2429      H2433   1.083       .  S
C2430      O2434   1.372       .  S
O2432      H2436   0.992       .  S
O2434      H2435   0.992       .  S
C2437      C2438   1.400       .  A
C2437      C2442   1.409       .  A
C2438      C2439   1.398       .  A
C2438      H2443   1.084       .  S
C2439      C2440   1.417       .  A
C2439      O2444   1.372       .  S
C2440      C2441   1.406       .  A
C2441      C2442   1.401       .  A
C2441      H2445   1.083       .  S
C2442      O2446   1.372       .  S
O2444      H2448   0.992       .  S
O2446      H2447   0.991       .  S
C2449      C2450   1.411       .  A
C2449      C2454   1.409       .  A
C2450      C2451   1.399       .  A
C2450      H2455   1.083       .  S
C2451      C2452   1.409       .  A
C2451      O2456   1.372       .  S
C2452      C2453   1.411       .  A
C2453      C2454   1.399       .  A
C2453      H2457   1.083       .  S
C2454      O2458   1.372       .  S
O2456      H2460   0.992       .  S
O2458      H2459   0.992       .  S
C2461      C2462   1.410       .  A
C2461      C2466   1.409       .  A
C2462      C2463   1.397       .  A
C2462      H2467   1.083       .  S
C2463      C2464   1.409       .  A
C2463      O2468   1.372       .  S
C2464      C2465   1.411       .  A
C2465      C2466   1.399       .  A
C2465      H2469   1.083       .  S
C2466      O2470   1.372       .  S
O2468      H2472   0.992       .  S
O2470      H2471   0.992       .  S
C2473      C2474   1.407       .  A
C2473      C2478   1.414       .  A
C2474      C2475   1.403       .  A
C2474      H2479   1.083       .  S
C2475      C2476   1.409       .  A
C2475      O2480   1.372       .  S
C2476      C2477   1.399       .  A
C2477      C2478   1.389       .  A
C2477      H2481   1.084       .  S
C2478      O2482   1.373       .  S
O2480      H2484   0.992       .  S
O2482      H2483   0.992       .  S
C2485      C2486   1.403       .  A
C2485      C2490   1.409       .  A
C2486      C2487   1.400       .  A
C2486      H2491   1.084       .  S
C2487      C2488   1.413       .  A
C2487      O2492   1.372       .  S
C2488      C2489   1.406       .  A
C2489      C2490   1.398       .  A
C2489      H2493   1.083       .  S
C2490      O2494   1.372       .  S
O2492      H2496   0.992       .  S
O2494      H2495   0.992       .  S
C2497      C2498   1.408       .  A
C2497      C2502   1.414       .  A
C2498      C2499   1.390       .  A
C2498      H2503   1.083       .  S
C2499      C2500   1.404       .  A
C2499      O2504   1.373       .  S
C2500      C2501   1.404       .  A
C2501      C2502   1.403       .  A
C2501      H2505   1.084       .  S
C2502      O2506   1.371       .  S
O2504      H2508   0.992       .  S
O2506      H2507   0.992       .  S
C2509      C2510   1.407       .  A
C2509      C2514   1.411       .  A
C2510      C2511   1.400       .  A
C2510      H2515   1.083       .  S
C2511      C2512   1.409       .  A
C2511      O2516   1.372       .  S
C2512      C2513   1.403       .  A
C2513      C2514   1.397       .  A
C2513      H2517   1.084       .  S
C2514      O2518   1.371       .  S
O2516      H2520   0.992       .  S
O2518      H2519   0.992       .  S
C2521      C2522   1.404       .  A
C2521      C2526   1.410       .  A
C2522      C2523   1.398       .  A
C2522      H2527   1.084       .  S
C2523      C2524   1.415       .  A
C2523      O2528   1.373       .  S
C2524      C2525   1.408       .  A
C2525      C2526   1.407       .  A
C2525      H2529   1.083       .  S
C2526      O2530   1.371       .  S
O2528      H2532   0.992       .  S
O2530      H2531   0.992       .  S
C2533      C2534   1.408       .  A
C2533      C2538   1.411       .  A
C2534      C2535   1.397       .  A
C2534      H2539   1.083       .  S
C2535      C2536   1.411       .  A
C2535      O2540   1.371       .  S
C2536      C2537   1.410       .  A
C2537      C2538   1.403       .  A
C2537      H2541   1.083       .  S
C2538      O2542   1.372       .  S
O2540      H2544   0.992       .  S
O2542      H2543   0.992       .  S
C2545      C2546   1.408       .  A
C2545      C2550   1.410       .  A
C2546      C2547   1.395       .  A
C2546      H2551   1.083       .  S
C2547      C2548   1.410       .  A
C2547      O2552   1.372       .  S
C2548      C2549   1.410       .  A
C2549      C2550   1.400       .  A
C2549      H2553   1.083       .  S
C2550      O2554   1.372       .  S
O2552      H2556   0.992       .  S
O2554      H2555   0.992       .  S
C2557      C2558   1.403       .  A
C2557      C2562   1.410       .  A
C2558      C2559   1.390       .  A
C2558      H2563   1.084       .  S
C2559      C2560   1.410       .  A
C2559      O2564   1.372       .  S
C2560      C2561   1.407       .  A
C2561      C2562   1.406       .  A
C2561      H2565   1.083       .  S
C2562      O2566   1.372       .  S
O2564      H2568   0.992       .  S
O2566      H2567   0.992       .  S
C2569      C2570   1.404       .  A
C2569      C2574   1.411       .  A
C2570      C2571   1.398       .  A
C2570      H2575   1.084       .  S
C2571      C2572   1.411       .  A
C2571      O2576   1.371       .  S
C2572      C2573   1.406       .  A
C2573      C2574   1.399       .  A
C2573      H2577   1.084       .  S
C2574      O2578   1.372       .  S
O2576      H2580   0.992       .  S
O2578      H2579   0.992       .  S
C2581      C2582   1.406       .  A
C2581      C2586   1.411       .  A
C2582      C2583   1.407       .  A
C2582      H2587   1.083       .  S
C2583      C2584   1.413       .  A
C2583      O2588   1.371       .  S
C2584      C2585   1.407       .  A
C2585      C2586   1.398       .  A
C2585      H2589   1.084       .  S
C2586      O2590   1.373       .  S
O2588      H2592   0.992       .  S
O2590      H2591   0.992       .  S
C2593      C2594   1.406       .  A
C2593      C2598   1.413       .  A
C2594      C2595   1.400       .  A
C2594      H2599   1.084       .  S
C2595      C2596   1.410       .  A
C2595      O2600   1.373       .  S
C2596      C2597   1.406       .  A
C2597      C2598   1.405       .  A
C2597      H2601   1.084       .  S
C2598      O2602   1.371       .  S
O2600      H2604   0.992       .  S
O2602      H2603   0.991       .  S
C2605      C2606   1.406       .  A
C2605      C2610   1.413       .  A
C2606      C2607   1.404       .  A
C2606      H2611   1.083       .  S
C2607      C2608   1.413       .  A
C2607      O2612   1.371       .  S
C2608      C2609   1.404       .  A
C2609      C2610   1.396       .  A
C2609      H2613   1.084       .  S
C2610      O2614   1.372       .  S
O2612      H2616   0.992       .  S
O2614      H2615   0.991       .  S
C2617      C2618   1.408       .  A
C2617      C2622   1.409       .  A
C2618      C2619   1.400       .  A
C2618      H2623   1.084       .  S
C2619      C2620   1.410       .  A
C2619      O2624   1.372       .  S
C2620      C2621   1.409       .  A
C2621      C2622   1.399       .  A
C2621      H2625   1.083       .  S
C2622      O2626   1.371       .  S
O2624      H2628   0.992       .  S
O2626      H2627   0.992       .  S
C2629      C2630   1.410       .  A
C2629      C2634   1.406       .  A
C2630      C2631   1.401       .  A
C2630      H2635   1.084       .  S
C2631      C2632   1.409       .  A
C2631      O2636   1.372       .  S
C2632      C2633   1.411       .  A
C2633      C2634   1.399       .  A
C2633      H2637   1.083       .  S
C2634      O2638   1.372       .  S
O2636      H2640   0.992       .  S
O2638      H2639   0.992       .  S
C2641      C2642   1.404       .  A
C2641      C2646   1.412       .  A
C2642      C2643   1.402   1_556  A
C2642      H2647   1.084       .  S
C2643      C2644   1.414       .  A
C2643      O2648   1.371       .  S
C2644      C2645   1.404       .  A
C2645      C2646   1.397   1_554  A
C2645      H2649   1.084       .  S
C2646      O2650   1.372       .  S
O2648      H2652   0.992       .  S
O2650      H2651   0.992       .  S
C2653      C2654   1.405       .  A
C2653      C2658   1.408       .  A
C2654      C2655   1.402       .  A
C2654      H2659   1.084       .  S
C2655      C2656   1.413       .  A
C2655      O2660   1.371       .  S
C2656      C2657   1.408       .  A
C2657      C2658   1.398       .  A
C2657      H2661   1.083       .  S
C2658      O2662   1.372       .  S
O2660      H2664   0.992       .  S
O2662      H2663   0.992       .  S
C2665      C2666   1.405       .  A
C2665      C2670   1.412       .  A
C2666      C2667   1.404   1_556  A
C2666      H2671   1.084       .  S
C2667      C2668   1.413       .  A
C2667      O2672   1.371       .  S
C2668      C2669   1.404       .  A
C2669      C2670   1.399   1_554  A
C2669      H2673   1.084       .  S
C2670      O2674   1.373       .  S
O2672      H2676   0.992       .  S
O2674      H2675   0.992       .  S
C2677      C2678   1.400       .  A
C2677      C2682   1.415       .  A
C2678      C2679   1.397       .  A
C2678      H2683   1.084       .  S
C2679      C2680   1.416       .  A
C2679      O2684   1.372       .  S
C2680      C2681   1.403       .  A
C2681      C2682   1.400       .  A
C2681      H2685   1.084       .  S
C2682      O2686   1.372       .  S
O2684      H2688   0.992       .  S
O2686      H2687   0.992       .  S
C2689      C2690   1.411       .  A
C2689      C2694   1.410       .  A
C2690      C2691   1.400       .  A
C2690      H2695   1.083       .  S
C2691      C2692   1.410       .  A
C2691      O2696   1.372       .  S
C2692      C2693   1.411       .  A
C2693      C2694   1.399       .  A
C2693      H2697   1.083       .  S
C2694      O2698   1.371       .  S
O2696      H2700   0.992       .  S
O2698      H2699   0.992       .  S
C2701      C2702   1.405       .  A
C2701      C2706   1.406       .  A
C2702      C2703   1.402       .  A
C2702      H2707   1.084       .  S
C2703      C2704   1.412       .  A
C2703      O2708   1.371       .  S
C2704      C2705   1.408       .  A
C2705      C2706   1.392       .  A
C2705      H2709   1.084       .  S
C2706      O2710   1.372       .  S
O2708      H2712   0.992   1_565  S
O2710      H2711   0.992       .  S
C2713      C2714   1.407       .  A
C2713      C2718   1.414       .  A
C2714      C2715   1.397   1_556  A
C2714      H2719   1.084       .  S
C2715      C2716   1.413       .  A
C2715      O2720   1.372       .  S
C2716      C2717   1.409       .  A
C2717      C2718   1.409   1_554  A
C2717      H2721   1.083       .  S
C2718      O2722   1.370       .  S
O2720      H2724   0.992       .  S
O2722      H2723   0.992       .  S
C2725      C2726   1.404       .  A
C2725      C2730   1.410       .  A
C2726      C2727   1.396   1_655  A
C2726      H2731   1.084       .  S
C2727      C2728   1.410       .  A
C2727      O2732   1.372       .  S
C2728      C2729   1.404       .  A
C2729      C2730   1.398   1_455  A
C2729      H2733   1.084       .  S
C2730      O2734   1.371       .  S
O2732      H2736   0.992       .  S
O2734      H2735   0.992       .  S
C2737      C2738   1.405       .  A
C2737      C2742   1.413       .  A
C2738      C2739   1.399   1_556  A
C2738      H2743   1.084       .  S
C2739      C2740   1.413       .  A
C2739      O2744   1.373       .  S
C2740      C2741   1.407       .  A
C2741      C2742   1.406   1_554  A
C2741      H2745   1.083       .  S
C2742      O2746   1.371       .  S
O2744      H2748   0.992       .  S
O2746      H2747   0.992       .  S
C2749      C2750   1.402       .  A
C2749      C2754   1.417       .  A
C2750      C2751   1.399       .  A
C2750      H2755   1.084       .  S
C2751      C2752   1.418       .  A
C2751      O2756   1.372       .  S
C2752      C2753   1.402       .  A
C2753      C2754   1.400       .  A
C2753      H2757   1.084       .  S
C2754      O2758   1.372       .  S
O2756      H2760   0.992       .  S
O2758      H2759   0.992       .  S
C2761      C2762   1.400       .  A
C2761      C2766   1.416       .  A
C2762      C2763   1.398       .  A
C2762      H2767   1.084       .  S
C2763      C2764   1.419       .  A
C2763      O2768   1.372       .  S
C2764      C2765   1.402       .  A
C2765      C2766   1.401       .  A
C2765      H2769   1.083       .  S
C2766      O2770   1.372       .  S
O2768      H2772   0.992       .  S
O2770      H2771   0.992       .  S
C2773      C2774   1.399       .  A
C2773      C2778   1.407       .  A
C2774      C2775   1.394   1_655  A
C2774      H2779   1.084       .  S
C2775      C2776   1.417       .  A
C2775      O2780   1.372       .  S
C2776      C2777   1.407       .  A
C2777      C2778   1.399   1_455  A
C2777      H2781   1.083       .  S
C2778      O2782   1.372       .  S
O2780      H2784   0.992       .  S
O2782      H2783   0.992       .  S
C2785      C2786   1.407       .  A
C2785      C2790   1.413       .  A
C2786      C2787   1.399       .  A
C2786      H2791   1.084       .  S
C2787      C2788   1.412       .  A
C2787      O2792   1.372       .  S
C2788      C2789   1.409       .  A
C2789      C2790   1.408       .  A
C2789      H2793   1.083       .  S
C2790      O2794   1.371       .  S
O2792      H2796   0.992       .  S
O2794      H2795   0.992       .  S
C2797      C2798   1.407       .  A
C2797      C2802   1.413       .  A
C2798      C2799   1.397   1_655  A
C2798      H2803   1.084       .  S
C2799      C2800   1.407       .  A
C2799      O2804   1.372       .  S
C2800      C2801   1.404       .  A
C2801      C2802   1.402   1_455  A
C2801      H2805   1.084       .  S
C2802      O2806   1.371       .  S
O2804      H2808   0.992       .  S
O2806      H2807   0.992       .  S
C2809      C2810   1.406       .  A
C2809      C2814   1.410       .  A
C2810      C2811   1.405       .  A
C2810      H2815   1.084       .  S
C2811      C2812   1.413       .  A
C2811      O2816   1.371       .  S
C2812      C2813   1.407       .  A
C2813      C2814   1.397       .  A
C2813      H2817   1.084       .  S
C2814      O2818   1.373       .  S
O2816      H2820   0.992       .  S
O2818      H2819   0.992       .  S
C2821      C2822   1.406       .  A
C2821      C2826   1.411       .  A
C2822      C2823   1.399       .  A
C2822      H2827   1.084       .  S
C2823      C2824   1.409       .  A
C2823      O2828   1.372       .  S
C2824      C2825   1.407       .  A
C2825      C2826   1.403       .  A
C2825      H2829   1.084       .  S
C2826      O2830   1.371       .  S
O2828      H2832   0.992       .  S
O2830      H2831   0.992       .  S
C2833      C2834   1.403       .  A
C2833      C2838   1.417       .  A
C2834      C2835   1.396       .  A
C2834      H2839   1.083       .  S
C2835      C2836   1.418       .  A
C2835      O2840   1.372       .  S
C2836      C2837   1.404       .  A
C2837      C2838   1.400       .  A
C2837      H2841   1.083       .  S
C2838      O2842   1.372       .  S
O2840      H2844   0.992       .  S
O2842      H2843   0.992       .  S
C2845      C2846   1.409       .  A
C2845      C2850   1.410       .  A
C2846      C2847   1.396       .  A
C2846      H2851   1.083       .  S
C2847      C2848   1.410       .  A
C2847      O2852   1.371       .  S
C2848      C2849   1.411       .  A
C2849      C2850   1.401       .  A
C2849      H2853   1.083       .  S
C2850      O2854   1.372       .  S
O2852      H2856   0.992       .  S
O2854      H2855   0.992       .  S
C2857      C2858   1.406       .  A
C2857      C2862   1.414       .  A
C2858      C2859   1.398   1_655  A
C2858      H2863   1.083       .  S
C2859      C2860   1.408       .  A
C2859      O2864   1.372       .  S
C2860      C2861   1.404       .  A
C2861      C2862   1.401   1_455  A
C2861      H2865   1.084       .  S
C2862      O2866   1.371       .  S
O2864      H2868   0.992       .  S
O2866      H2867   0.992       .  S
C2869      C2870   1.404       .  A
C2869      C2874   1.407       .  A
C2870      C2871   1.404       .  A
C2870      H2875   1.084       .  S
C2871      C2872   1.415       .  A
C2871      O2876   1.371       .  S
C2872      C2873   1.408       .  A
C2873      C2874   1.398       .  A
C2873      H2877   1.083       .  S
C2874      O2878   1.372       .  S
O2876      H2880   0.992       .  S
O2878      H2879   0.992       .  S
C2881      C2882   1.407       .  A
C2881      C2886   1.413       .  A
C2882      C2883   1.400       .  A
C2882      H2887   1.084       .  S
C2883      C2884   1.413       .  A
C2883      O2888   1.372       .  S
C2884      C2885   1.408       .  A
C2885      C2886   1.407       .  A
C2885      H2889   1.083       .  S
C2886      O2890   1.371       .  S
O2888      H2892   0.992       .  S
O2890      H2891   0.992       .  S
C2893      C2894   1.403       .  A
C2893      C2898   1.411       .  A
C2894      C2895   1.395       .  A
C2894      H2899   1.084       .  S
C2895      C2896   1.415       .  A
C2895      O2900   1.373       .  S
C2896      C2897   1.406       .  A
C2897      C2898   1.405       .  A
C2897      H2901   1.083       .  S
C2898      O2902   1.371       .  S
O2900      H2904   0.992       .  S
O2902      H2903   0.992       .  S
C2905      C2906   1.408       .  A
C2905      C2910   1.413       .  A
C2906      C2907   1.400       .  A
C2906      H2911   1.084       .  S
C2907      C2908   1.412       .  A
C2907      O2912   1.373       .  S
C2908      C2909   1.409       .  A
C2909      C2910   1.410       .  A
C2909      H2913   1.083       .  S
C2910      O2914   1.371       .  S
O2912      H2916   0.992       .  S
O2914      H2915   0.992       .  S
C2917      C2918   1.413       .  A
C2917      C2922   1.408       .  A
C2918      C2919   1.400       .  A
C2918      H2923   1.083       .  S
C2919      C2920   1.408       .  A
C2919      O2924   1.371       .  S
C2920      C2921   1.413       .  A
C2921      C2922   1.400       .  A
C2921      H2925   1.083       .  S
C2922      O2926   1.372       .  S
O2924      H2928   0.992       .  S
O2926      H2927   0.992       .  S
C2929      C2930   1.411       .  A
C2929      C2934   1.408       .  A
C2930      C2931   1.400       .  A
C2930      H2935   1.083       .  S
C2931      C2932   1.407       .  A
C2931      O2936   1.372       .  S
C2932      C2933   1.410       .  A
C2933      C2934   1.400       .  A
C2933      H2937   1.084       .  S
C2934      O2938   1.371       .  S
O2936      H2940   0.992       .  S
O2938      H2939   0.992       .  S
C2941      C2942   1.406       .  A
C2941      C2946   1.412       .  A
C2942      C2943   1.405       .  A
C2942      H2947   1.083       .  S
C2943      C2944   1.412       .  A
C2943      O2948   1.371       .  S
C2944      C2945   1.406       .  A
C2945      C2946   1.396       .  A
C2945      H2949   1.084       .  S
C2946      O2950   1.373       .  S
O2948      H2952   0.992       .  S
O2950      H2951   0.992       .  S
C2953      C2954   1.407       .  A
C2953      C2958   1.414       .  A
C2954      C2955   1.401   1_556  A
C2954      H2959   1.084       .  S
C2955      C2956   1.411       .  A
C2955      O2960   1.372       .  S
C2956      C2957   1.407       .  A
C2957      C2958   1.407   1_554  A
C2957      H2961   1.083       .  S
C2958      O2962   1.371       .  S
O2960      H2964   0.992       .  S
O2962      H2963   0.992       .  S
C2965      C2966   1.408       .  A
C2965      C2970   1.415       .  A
C2966      C2967   1.405       .  A
C2966      H2971   1.083       .  S
C2967      C2968   1.411       .  A
C2967      O2972   1.372       .  S
C2968      C2969   1.401       .  A
C2969      C2970   1.393       .  A
C2969      H2973   1.084       .  S
C2970      O2974   1.372       .  S
O2972      H2976   0.992       .  S
O2974      H2975   0.992       .  S
C2977      C2978   1.406       .  A
C2977      C2982   1.412       .  A
C2978      C2979   1.404       .  A
C2978      H2983   1.083       .  S
C2979      C2980   1.412       .  A
C2979      O2984   1.371       .  S
C2980      C2981   1.405       .  A
C2981      C2982   1.399       .  A
C2981      H2985   1.084       .  S
C2982      O2986   1.373       .  S
O2984      H2988   0.992       .  S
O2986      H2987   0.992       .  S
C2989      C2990   1.406       .  A
C2989      C2994   1.411       .  A
C2990      C2991   1.400   1_556  A
C2990      H2995   1.084       .  S
C2991      C2992   1.409       .  A
C2991      O2996   1.372       .  S
C2992      C2993   1.405       .  A
C2993      C2994   1.400   1_554  A
C2993      H2997   1.084       .  S
C2994      O2998   1.371       .  S
O2996      H3000   0.992       .  S
O2998      H2999   0.992       .  S
C3001      C3002   1.402       .  A
C3001      C3006   1.419       .  A
C3002      C3003   1.399       .  A
C3002      H3007   1.083       .  S
C3003      C3004   1.419       .  A
C3003      O3008   1.372       .  S
C3004      C3005   1.404       .  A
C3005      C3006   1.402       .  A
C3005      H3009   1.083       .  S
C3006      O3010   1.372       .  S
O3008      H3012   0.992       .  S
O3010      H3011   0.992       .  S
C3013      C3014   1.402       .  A
C3013      C3018   1.419       .  A
C3014      C3015   1.399       .  A
C3014      H3019   1.083       .  S
C3015      C3016   1.418       .  A
C3015      O3020   1.372       .  S
C3016      C3017   1.402       .  A
C3017      C3018   1.397       .  A
C3017      H3021   1.084       .  S
C3018      O3022   1.372       .  S
O3020      H3024   0.992       .  S
O3022      H3023   0.992       .  S
C3025      C3026   1.408       .  A
C3025      C3030   1.413       .  A
C3026      C3027   1.392       .  A
C3026      H3031   1.084       .  S
C3027      C3028   1.407       .  A
C3027      O3032   1.372       .  S
C3028      C3029   1.406       .  A
C3029      C3030   1.405       .  A
C3029      H3033   1.084       .  S
C3030      O3034   1.371       .  S
O3032      H3036   0.992       .  S
O3034      H3035   0.992       .  S
C3037      C3038   1.407       .  A
C3037      C3042   1.415       .  A
C3038      C3039   1.406       .  A
C3038      H3043   1.083       .  S
C3039      C3040   1.412       .  A
C3039      O3044   1.371       .  S
C3040      C3041   1.404       .  A
C3041      C3042   1.401       .  A
C3041      H3045   1.084       .  S
C3042      O3046   1.372       .  S
O3044      H3048   0.992       .  S
O3046      H3047   0.992       .  S
C3049      C3050   1.404       .  A
C3049      C3054   1.413       .  A
C3050      C3051   1.399       .  A
C3050      H3055   1.084       .  S
C3051      C3052   1.412       .  A
C3051      O3056   1.373       .  S
C3052      C3053   1.408       .  A
C3053      C3054   1.406       .  A
C3053      H3057   1.083       .  S
C3054      O3058   1.371       .  S
O3056      H3060   0.992       .  S
O3058      H3059   0.992       .  S
C3061      C3062   1.404       .  A
C3061      C3066   1.409       .  A
C3062      C3063   1.403       .  A
C3062      H3067   1.084       .  S
C3063      C3064   1.412       .  A
C3063      O3068   1.371       .  S
C3064      C3065   1.407       .  A
C3065      C3066   1.396       .  A
C3065      H3069   1.084       .  S
C3066      O3070   1.373       .  S
O3068      H3072   0.992       .  S
O3070      H3071   0.992       .  S
C3073      C3074   1.405       .  A
C3073      C3078   1.411       .  A
C3074      C3075   1.399       .  A
C3074      H3079   1.084       .  S
C3075      C3076   1.411       .  A
C3075      O3080   1.372       .  S
C3076      C3077   1.406       .  A
C3077      C3078   1.400       .  A
C3077      H3081   1.084       .  S
C3078      O3082   1.372       .  S
O3080      H3084   0.992       .  S
O3082      H3083   0.992       .  S
C3085      C3086   1.405       .  A
C3085      C3090   1.412       .  A
C3086      C3087   1.405       .  A
C3086      H3091   1.084       .  S
C3087      C3088   1.413       .  A
C3087      O3092   1.372       .  S
C3088      C3089   1.404       .  A
C3089      C3090   1.398       .  A
C3089      H3093   1.084       .  S
C3090      O3094   1.372       .  S
O3092      H3096   0.992       .  S
O3094      H3095   0.992       .  S
C3097      C3098   1.402       .  A
C3097      C3102   1.414       .  A
C3098      C3099   1.400       .  A
C3098      H3103   1.084       .  S
C3099      C3100   1.416       .  A
C3099      O3104   1.372       .  S
C3100      C3101   1.404       .  A
C3101      C3102   1.401       .  A
C3101      H3105   1.084       .  S
C3102      O3106   1.372       .  S
O3104      H3108   0.992       .  S
O3106      H3107   0.992       .  S
C3109      C3110   1.400       .  A
C3109      C3114   1.416       .  A
C3110      C3111   1.398       .  A
C3110      H3115   1.084       .  S
C3111      C3112   1.416       .  A
C3111      O3116   1.372       .  S
C3112      C3113   1.403       .  A
C3113      C3114   1.402       .  A
C3113      H3117   1.084       .  S
C3114      O3118   1.372       .  S
O3116      H3120   0.992       .  S
O3118      H3119   0.992       .  S
C3121      C3122   1.407       .  A
C3121      C3126   1.413       .  A
C3122      C3123   1.396       .  A
C3122      H3127   1.084       .  S
C3123      C3124   1.410       .  A
C3123      O3128   1.372       .  S
C3124      C3125   1.406       .  A
C3125      C3126   1.404       .  A
C3125      H3129   1.084       .  S
C3126      O3130   1.371       .  S
O3128      H3132   0.992       .  S
O3130      H3131   0.992       .  S
C3133      C3134   1.406       .  A
C3133      C3138   1.409       .  A
C3134      C3135   1.399       .  A
C3134      H3139   1.084       .  S
C3135      C3136   1.412       .  A
C3135      O3140   1.372       .  S
C3136      C3137   1.405       .  A
C3137      C3138   1.398       .  A
C3137      H3141   1.083       .  S
C3138      O3142   1.372       .  S
O3140      H3144   0.992       .  S
O3142      H3143   0.992       .  S
C3145      C3146   1.407       .  A
C3145      C3150   1.410       .  A
C3146      C3147   1.400   1_556  A
C3146      H3151   1.084       .  S
C3147      C3148   1.409       .  A
C3147      O3152   1.372       .  S
C3148      C3149   1.407       .  A
C3149      C3150   1.403   1_554  A
C3149      H3153   1.084       .  S
C3150      O3154   1.371       .  S
O3152      H3156   0.992       .  S
O3154      H3155   0.991       .  S
C3157      C3158   1.407       .  A
C3157      C3162   1.413       .  A
C3158      C3159   1.407       .  A
C3158      H3163   1.083       .  S
C3159      C3160   1.412       .  A
C3159      O3164   1.371       .  S
C3160      C3161   1.405       .  A
C3161      C3162   1.395       .  A
C3161      H3165   1.084       .  S
C3162      O3166   1.372       .  S
O3164      H3168   0.992       .  S
O3166      H3167   0.992       .  S
C3169      C3170   1.408       .  A
C3169      C3174   1.411       .  A
C3170      C3171   1.401       .  A
C3170      H3175   1.084       .  S
C3171      C3172   1.404       .  A
C3171      O3176   1.372       .  S
C3172      C3173   1.401       .  A
C3173      C3174   1.402       .  A
C3173      H3177   1.084       .  S
C3174      O3178   1.371       .  S
O3176      H3180   0.992       .  S
O3178      H3179   0.992       .  S
C3181      C3182   1.406       .  A
C3181      C3186   1.410       .  A
C3182      C3183   1.406       .  A
C3182      H3187   1.083       .  S
C3183      C3184   1.413       .  A
C3183      O3188   1.371       .  S
C3184      C3185   1.408       .  A
C3185      C3186   1.398       .  A
C3185      H3189   1.084       .  S
C3186      O3190   1.372       .  S
O3188      H3192   0.992       .  S
O3190      H3191   0.992       .  S
C3193      C3194   1.406       .  A
C3193      C3198   1.412       .  A
C3194      C3195   1.397   1_556  A
C3194      H3199   1.084       .  S
C3195      C3196   1.410       .  A
C3195      O3200   1.372       .  S
C3196      C3197   1.408       .  A
C3197      C3198   1.406   1_554  A
C3197      H3201   1.084       .  S
C3198      O3202   1.371       .  S
O3200      H3204   0.991       .  S
O3202      H3203   0.992       .  S
C3205      C3206   1.401       .  A
C3205      C3210   1.416       .  A
C3206      C3207   1.396       .  A
C3206      H3211   1.084       .  S
C3207      C3208   1.418       .  A
C3207      O3212   1.372       .  S
C3208      C3209   1.404       .  A
C3209      C3210   1.400       .  A
C3209      H3213   1.083       .  S
C3210      O3214   1.372       .  S
O3212      H3216   0.992       .  S
O3214      H3215   0.992       .  S
C3217      C3218   1.403       .  A
C3217      C3222   1.416       .  A
C3218      C3219   1.400       .  A
C3218      H3223   1.084       .  S
C3219      C3220   1.416   1_545  A
C3219      O3224   1.372       .  S
C3220      C3221   1.404   1_565  A
C3221      C3222   1.403       .  A
C3221      H3225   1.083       .  S
C3222      O3226   1.372       .  S
O3224      H3228   0.992       .  S
O3226      H3227   0.992       .  S
C3229      C3230   1.407       .  A
C3229      C3234   1.409       .  A
C3230      C3231   1.406       .  A
C3230      H3235   1.084       .  S
C3231      C3232   1.412       .  A
C3231      O3236   1.371       .  S
C3232      C3233   1.406       .  A
C3233      C3234   1.393       .  A
C3233      H3237   1.084       .  S
C3234      O3238   1.372       .  S
O3236      H3240   0.992       .  S
O3238      H3239   0.992       .  S
C3241      C3242   1.396       .  A
C3241      C3246   1.404       .  A
C3242      C3243   1.396       .  A
C3242      H3247   1.084       .  S
C3243      C3244   1.415       .  A
C3243      O3248   1.372       .  S
C3244      C3245   1.407       .  A
C3245      C3246   1.399       .  A
C3245      H3249   1.083       .  S
C3246      O3250   1.372       .  S
O3248      H3252   0.992       .  S
O3250      H3251   0.992       .  S
C3253      C3254   1.406       .  A
C3253      C3258   1.415       .  A
C3254      C3255   1.398       .  A
C3254      H3259   1.084       .  S
C3255      C3256   1.410       .  A
C3255      O3260   1.372       .  S
C3256      C3257   1.405       .  A
C3257      C3258   1.406       .  A
C3257      H3261   1.084       .  S
C3258      O3262   1.371       .  S
O3260      H3264   0.992       .  S
O3262      H3263   0.992       .  S
