geometry optimzed in LAMMPS
_audit_creation_date              2020-12-01 
_audit_creation_method            'lammps2cif' 
_symmetry_space_group_name_H-M    'P1' 
_symmetry_Int_Tables_number       1 
_symmetry_cell_setting            triclinic 
loop_ 
_symmetry_equiv_pos_as_xyz 
  x,y,z 
_cell_length_a                    42.82715928 
_cell_length_b                    43.829464998202724 
_cell_length_c                    33.03207966183945 
_cell_angle_alpha                 89.05648005273689 
_cell_angle_beta                  90.13802379319269 
_cell_angle_gamma                 90.2407863049699 
loop_ 
_atom_site_label 
_atom_site_type_symbol 
_atom_site_fract_x 
_atom_site_fract_y 
_atom_site_fract_z 
_atom_site_charge 
Fe1        Fe  0.06690259  0.00831925  0.65863767     1.65800
Fe2        Fe  0.00752374  0.05922616  0.65403071     1.73200
Fe3        Fe  0.01815734  0.01739520  0.73930009     1.54400
O4          O  0.02254089  0.47203563  0.73017724    -0.81900
O5          O  0.99806832  0.08367343  0.70576006    -0.80200
O6          O  0.04048243  0.46314278  0.66794804    -0.84400
O7          O  0.09444972  0.01140551  0.70963552    -0.79200
O8          O  0.47112970  0.02709116  0.73331710    -0.81000
O9          O  0.04814418  0.08541679  0.64544745    -0.83700
C10         C  0.08910204  0.00816169  0.74718703     0.97000
C11         C  0.02668220  0.45439704  0.70026526     1.04500
O12         O  0.03143613  0.02842445  0.68402343    -1.12700
O13         O  0.51072359  0.03984877  0.60352306    -0.75200
O14         O  0.04440857  0.00140066  0.60384671    -0.78600
O15         O  0.06198422  0.00890492  0.76191806    -0.79300
C16         C  0.02527153  0.01721563  0.58321445     0.95900
O17         O  0.08570423  0.05042661  0.63966204    -0.77300
O18         O  0.46564030  0.03277793  0.66736629    -0.82500
C19         C  0.00603785  0.08408562  0.74290581     0.98500
C20         C  0.45552800  0.02310758  0.70137577     1.04500
O21         O  0.02089987  0.06206296  0.75931151    -0.78100
C22         C  0.07669563  0.07819540  0.63905231     1.02800
Fe23       Fe  0.19215810  0.24206884  0.65621824     1.65800
Fe24       Fe  0.24466144  0.18405705  0.65228113     1.73200
Fe25       Fe  0.23336012  0.22165645  0.74080365     1.54400
O26         O  0.23621845  0.26841819  0.73192332    -0.81900
O27         O  0.24738450  0.15417798  0.69992833    -0.80200
O28         O  0.21646503  0.28131149  0.67128449    -0.84400
O29         O  0.16482200  0.24677361  0.70692503    -0.79200
O30         O  0.27987579  0.22016307  0.72854259    -0.81000
O31         O  0.20091250  0.16490427  0.63772670    -0.83700
C32         C  0.16511957  0.23899949  0.74395954     0.97000
C33         C  0.23130410  0.28776717  0.70353321     1.04500
O34         O  0.22338515  0.21585288  0.68315186    -1.12700
O35         O  0.24795801  0.20787405  0.59832670    -0.75200
O36         O  0.21364157  0.24480811  0.60036291    -0.78600
O37         O  0.18761429  0.22460942  0.76011131    -0.79300
C38         C  0.23512756  0.23086032  0.58231783     0.95900
O39         O  0.16645896  0.20314263  0.64108068    -0.77300
O40         O  0.28914146  0.20114426  0.66729511    -0.82500
C41         C  0.24367353  0.15278630  0.73782395     0.98500
C42         C  0.29833317  0.21291523  0.70043236     1.04500
O43         O  0.23374501  0.17546015  0.75735167    -0.78100
C44         C  0.17274194  0.17483855  0.63695984     1.02800
Fe45       Fe  0.26068052  0.31935415  0.34785445     1.65800
Fe46       Fe  0.31340827  0.26147114  0.34689824     1.73200
Fe47       Fe  0.27379902  0.28005085  0.26113401     1.54400
O48         O  0.22723091  0.27675763  0.27336258    -0.81900
O49         O  0.34002505  0.25566543  0.29574866    -0.80200
O50         O  0.21699730  0.30272236  0.32970227    -0.84400
O51         O  0.26164457  0.35033240  0.30038826    -0.79200
O52         O  0.27628698  0.23384283  0.27000507    -0.81000
O53         O  0.33898323  0.30017193  0.36032754    -0.83700
C54         C  0.26399233  0.34949256  0.26228959     0.97000
C55         C  0.20862211  0.28584889  0.30039619     1.04500
O56         O  0.28255818  0.28722718  0.31865788    -1.12700
O57         O  0.29253915  0.26100032  0.40322268    -0.75200
O58         O  0.25479768  0.29469165  0.40087258    -0.78600
O59         O  0.26922933  0.32514815  0.24355162    -0.79300
C60         C  0.26949006  0.27390524  0.41943922     0.95900
O61         O  0.30360669  0.33715688  0.36694236    -0.77300
O62         O  0.28931410  0.22173424  0.33371632    -0.82500
C63         C  0.34120517  0.26486681  0.25918824     0.98500
C64         C  0.27992743  0.21449458  0.29861589     1.04500
O65         O  0.32004532  0.28139312  0.24353228    -0.78100
C66         C  0.33193236  0.32773941  0.36767237     1.02800
Fe67       Fe  0.49750863  0.43489533  0.34284442     1.65800
Fe68       Fe  0.44297187  0.48980947  0.34346308     1.73200
Fe69       Fe  0.48215865  0.47422516  0.25671405     1.54400
O70         O  0.02890360  0.47413232  0.27206301    -0.81900
O71         O  0.41094916  0.48819905  0.29744986    -0.80200
O72         O  0.03927639  0.45770284  0.33531012    -0.84400
O73         O  0.00356135  0.40866016  0.29680055    -0.79200
O74         O  0.48200785  0.02350836  0.28021082    -0.81000
O75         O  0.42319432  0.44952014  0.36670158    -0.83700
C76         C  0.49179758  0.40791318  0.25628138     0.97000
C77         C  0.04728562  0.47059642  0.30204539     1.04500
O78         O  0.47356851  0.46632248  0.31424803    -1.12700
O79         O  0.46790100  0.99157187  0.41189134    -0.75200
O80         O  0.49636685  0.45357207  0.40010646    -0.78600
O81         O  0.47523178  0.42929206  0.24165501    -0.79300
C82         C  0.48706984  0.47835660  0.41473193     0.95900
O83         O  0.45628944  0.41132389  0.35460346    -0.77300
O84         O  0.46498470  0.03207933  0.34292374    -0.82500
C85         C  0.41166277  0.48926520  0.25913301     0.98500
C86         C  0.47617130  0.04124001  0.30919339     1.04500
O87         O  0.43644616  0.48418904  0.23949732    -0.78100
C88         C  0.42929193  0.42105086  0.36484055     1.02800
Fe89       Fe  0.44212658  0.25461259  0.85490194     1.65800
Fe90       Fe  0.99369304  0.31001972  0.84163752     1.73200
Fe91       Fe  0.48494240  0.26539637  0.76869349     1.54400
O92         O  0.48363200  0.21922596  0.78246537    -0.81900
O93         O  0.49909176  0.33808618  0.79990284    -0.80200
O94         O  0.46145906  0.21162869  0.84290859    -0.84400
O95         O  0.41379783  0.25108863  0.80533759    -0.79200
O96         O  0.02820132  0.26193027  0.77386683    -0.81000
O97         O  0.45583531  0.33211806  0.86602825    -0.83700
C98         C  0.41441163  0.25451831  0.76719693     0.97000
C99         C  0.47513537  0.20175822  0.81146233     1.04500
O100        O  0.47493863  0.27697859  0.82489125    -1.12700
O101        O  0.99726622  0.28803032  0.89725194    -0.75200
O102        O  0.46541598  0.25322822  0.90939003    -0.78600
O103        O  0.43873610  0.26382829  0.74879863    -0.79300
C104        C  0.48774575  0.26751009  0.92544071     0.95900
O105        O  0.41945849  0.29570005  0.86812423    -0.77300
O106        O  0.03701145  0.29140758  0.82753705    -0.82500
C107        C  0.49539454  0.33517164  0.76213744     0.98500
C108        C  0.04608725  0.27279325  0.80077971     1.04500
O109        O  0.48848730  0.30988667  0.74621111    -0.78100
C110        C  0.42744419  0.32383261  0.87008463     1.02800
Fe111      Fe  0.31352866  0.48229760  0.85055458     1.65800
Fe112      Fe  0.25690472  0.42916819  0.85130984     1.73200
Fe113      Fe  0.26881980  0.47282019  0.76731645     1.54400
O114        O  0.27573496  0.01806598  0.77136985    -0.81900
O115        O  0.24865034  0.40487451  0.79899677    -0.80200
O116        O  0.29682887  0.02679967  0.83194756    -0.84400
O117        O  0.34277209  0.47368933  0.80356688    -0.79200
O118        O  0.22165575  0.46649656  0.77843887    -0.81000
O119        O  0.29778149  0.40458185  0.85901080    -0.83700
C120        C  0.34046261  0.48297194  0.76744173     0.97000
C121        C  0.28444044  0.03603436  0.79895188     1.04500
O122        O  0.27962382  0.46176404  0.82319465    -1.12700
O123        O  0.26086881  0.44816657  0.90843495    -0.75200
O124        O  0.28658093  0.49192747  0.90021282    -0.78600
O125        O  0.31434419  0.48327751  0.74917036    -0.79300
C126        C  0.26956931  0.47402528  0.92110474     0.95900
O127        O  0.33094841  0.44130550  0.87625506    -0.77300
O128        O  0.21565918  0.45282321  0.84354024    -0.82500
C129        C  0.25954409  0.40552986  0.76328827     0.98500
C130        C  0.20532486  0.46414596  0.81048383     1.04500
O131        O  0.27386533  0.42849135  0.74850602    -0.78100
C132        C  0.32466957  0.41304316  0.87090330     1.02800
Fe133      Fe  0.00953507  0.19121143  0.15135488     1.65800
Fe134      Fe  0.06641170  0.24562823  0.15308228     1.73200
Fe135      Fe  0.02388141  0.23005643  0.23818324     1.54400
O136        O  0.47412344  0.22478665  0.23302193    -0.81900
O137        O  0.09315557  0.25096200  0.20435097    -0.80200
O138        O  0.46710848  0.20949486  0.16960864    -0.84400
O139        O  0.00775424  0.16083940  0.19892932    -0.79200
O140        O  0.02680091  0.27642325  0.22793208    -0.81000
O141        O  0.08973045  0.20492798  0.14053697    -0.83700
C142        C  0.01118504  0.16075867  0.23693409     0.97000
C143        C  0.45701203  0.22074364  0.20222052     1.04500
O144        O  0.03326963  0.22210137  0.18092695    -1.12700
O145        O  0.04640005  0.24679324  0.09608814    -0.75200
O146        O  0.00577389  0.21595977  0.09838775    -0.78600
O147        O  0.01894147  0.18448430  0.25605034    -0.79300
C148        C  0.02232717  0.23555864  0.07998120     0.95900
O149        O  0.05156093  0.17034676  0.13368091    -0.77300
O150        O  0.04399586  0.28657413  0.16519679    -0.82500
C151        C  0.09270315  0.24260359  0.24116051     0.98500
C152        C  0.03129061  0.29469870  0.19817863     1.04500
O153        O  0.06984878  0.22844137  0.25692797    -0.78100
C154        C  0.08058648  0.17762816  0.13325698     1.02800
Fe155      Fe  0.24851463  0.06529622  0.14752421     1.65800
Fe156      Fe  0.18859759  0.01444269  0.15407755     1.73200
Fe157      Fe  0.23052048  0.03193543  0.23854007     1.54400
O158        O  0.27717993  0.02895480  0.22955299    -0.81900
O159        O  0.16046447  0.01288776  0.20434583    -0.80200
O160        O  0.29061806  0.04507469  0.16753773    -0.84400
O161        O  0.25204567  0.09625807  0.19237282    -0.79200
O162        O  0.22326545  0.48298159  0.22872224    -0.81000
O163        O  0.16748808  0.05579683  0.13709235    -0.83700
C164        C  0.24691392  0.09925454  0.22956828     0.97000
C165        C  0.29742940  0.03392705  0.20248553     1.04500
O166        O  0.22262611  0.03723610  0.18003166    -1.12700
O167        O  0.20438067  0.50894275  0.09242470    -0.75200
O168        O  0.25108205  0.03885420  0.09656266    -0.78600
O169        O  0.23481039  0.07795593  0.25078897    -0.79300
C170        C  0.23393939  0.01879244  0.08073984     0.95900
O171        O  0.20756826  0.08819554  0.12811179    -0.77300
O172        O  0.21014411  0.47125604  0.16511581    -0.82500
C173        C  0.16107295  0.02187276  0.24045570     0.98500
C174        C  0.22142344  0.46415684  0.19972353     1.04500
O175        O  0.18479249  0.03399833  0.25617289    -0.78100
C176        C  0.17811149  0.08266844  0.12935713     1.02800
C177        C  0.13678307  0.16125474  0.13257404    -0.06000
C178        C  0.10526597  0.15333735  0.12597968     0.00000
C179        C  0.09881663  0.12263182  0.11455686    -0.11000
C180        C  0.12346561  0.10101546  0.11424007    -0.06000
C181        C  0.15468680  0.10853463  0.12372319    -0.00100
C182        C  0.16147196  0.13985892  0.13152345    -0.08500
C183        C  0.19428059  0.15105330  0.14078675     0.61900
H184        H  0.14207022  0.18463343  0.14005835     0.12500
H185        H  0.11821703  0.07748259  0.10738888     0.12600
C186        C  0.06626187  0.11218416  0.10248698     0.62100
F187        F  0.19547709  0.18220312  0.14703674    -0.23100
F188        F  0.21386603  0.14494406  0.10872087    -0.20400
F189        F  0.20496051  0.13676860  0.17563037    -0.20100
F190        F  0.05437802  0.13158670  0.07283219    -0.20100
F191        F  0.04686163  0.11187158  0.13590242    -0.20500
F192        F  0.06633743  0.08305026  0.08690056    -0.23100
C193        C  0.23940917  0.50963064  0.96274321    -0.06000
C194        C  0.25887369  0.48399211  0.96123580     0.00000
C195        C  0.26480147  0.01872956  0.97283169    -0.08600
C196        C  0.25534018  0.02760892  0.01175646    -0.06000
C197        C  0.24275256  0.00683478  0.04016958    -0.00100
C198        C  0.22857167  0.52083726  0.99982017    -0.08500
C199        C  0.20731038  0.54841893  0.00053256     0.61900
H200        H  0.23271775  0.52077148  0.93452432     0.12500
H201        H  0.25763976  0.05123980  0.02041066     0.12600
C202        C  0.27769007  0.04294542  0.94382014     0.62100
F203        F  0.19992105  0.55881321  0.96188340    -0.23100
F204        F  0.22191994  0.57184884  0.02084279    -0.20400
F205        F  0.17978054  0.54087994  0.02016940    -0.20100
F206        F  0.26155762  0.04219374  0.90754237    -0.20100
F207        F  0.30907827  0.03780893  0.93709427    -0.20500
F208        F  0.27483683  0.07206834  0.95897858    -0.23100
C209        C  0.00776620  0.28026712  0.98098057    -0.06000
C210        C  0.49825999  0.25807444  0.96664435     0.00000
C211        C  0.50414055  0.22710879  0.97736696    -0.08600
C212        C  0.51329125  0.21990819  0.01727240    -0.06000
C213        C  0.01316886  0.24459366  0.03786321    -0.00100
C214        C  0.01817990  0.27417315  0.02081160    -0.08500
C215        C  0.03355319  0.29961333  0.04454737     0.61900
H216        H  0.01154877  0.30270755  0.96766961     0.12500
H217        H  0.51756219  0.19637619  0.02609870     0.12600
C218        C  0.50161021  0.20171410  0.94676300     0.62100
F219        F  0.03222734  0.32738033  0.02401472    -0.23100
F220        F  0.06466435  0.29286128  0.05126664    -0.20400
F221        F  0.01850783  0.30297198  0.08120912    -0.20100
F222        F  0.51857779  0.20939424  0.91255486    -0.20100
F223        F  0.47070223  0.19712828  0.93631112    -0.20500
F224        F  0.51317963  0.17436917  0.96195059    -0.23100
C225        C  0.37105759  0.33755259  0.88045875    -0.06000
C226        C  0.40216260  0.34773084  0.87555689     0.00000
C227        C  0.40742508  0.38000427  0.87352083    -0.08600
C228        C  0.38152157  0.40000087  0.87405197    -0.06000
C229        C  0.35039460  0.38966317  0.87637873    -0.00100
C230        C  0.34521496  0.35763441  0.88100692    -0.08500
C231        C  0.31269105  0.34415899  0.88647915     0.61900
H232        H  0.36680052  0.31324330  0.88268032     0.12500
H233        H  0.38548809  0.42430587  0.87093063     0.12600
C234        C  0.43991759  0.39400006  0.86986486     0.62100
F235        F  0.31362806  0.31355318  0.89749573    -0.23100
F236        F  0.29613943  0.34659947  0.85057532    -0.20400
F237        F  0.29710237  0.35933604  0.91671636    -0.20100
F238        F  0.45340789  0.38565617  0.83375054    -0.20100
F239        F  0.45829124  0.38433398  0.90205915    -0.20500
F240        F  0.43931674  0.42558306  0.87032118    -0.23100
C241        C  0.50765424  0.08873351  0.31713066    -0.06000
C242        C  0.48134477  0.07397342  0.30102818     0.00000
C243        C  0.96447346  0.09030989  0.26242188    -0.08600
C244        C  0.97435558  0.11856838  0.24689930    -0.06000
C245        C  0.00259190  0.13206365  0.25873788    -0.00100
C246        C  0.51716733  0.11788239  0.30255718    -0.08500
C247        C  0.54528915  0.13346761  0.32112491     0.61900
H248        H  0.52129999  0.07676009  0.33995868     0.12500
H249        H  0.96023569  0.13009191  0.22422353     0.12600
C250        C  0.93312286  0.07751451  0.24967052     0.62100
F251        F  0.55872013  0.11577373  0.35154517    -0.23100
F252        F  0.53626700  0.16075119  0.33789377    -0.20400
F253        F  0.56759308  0.13904481  0.29170864    -0.20100
F254        F  0.91576630  0.07122935  0.28396450    -0.20100
F255        F  0.93729738  0.05112335  0.22805184    -0.20500
F256        F  0.91639318  0.09786026  0.22564408    -0.23100
C257        C  0.02736958  0.38046742  0.21368403    -0.06000
C258        C  0.99958059  0.38183916  0.23616948     0.00000
C259        C  0.98048127  0.35573807  0.24018988    -0.08600
C260        C  0.99053950  0.32843685  0.22317655    -0.06000
C261        C  0.01960671  0.32611998  0.20379855    -0.00100
C262        C  0.03792541  0.35274639  0.19738622    -0.08500
C263        C  0.06907008  0.35154355  0.17570737     0.61900
H264        H  0.04164643  0.40087015  0.21116370     0.12500
H265        H  0.97659312  0.30795066  0.22727910     0.12600
C266        C  0.44472670  0.35814973  0.25172119     0.62100
F267        F  0.08347769  0.37987152  0.17379065    -0.23100
F268        F  0.06455468  0.34176736  0.13652635    -0.20400
F269        F  0.08886188  0.33156441  0.19587194    -0.20100
F270        F  0.95655165  0.36468454  0.30349270    -0.20100
F271        F  0.42972544  0.33021417  0.25421543    -0.20500
F272        F  0.42723845  0.37759508  0.22739742    -0.23100
C273        C  0.13309567  0.47828441  0.27837890    -0.06000
C274        C  0.13383649  0.50864058  0.26401376     0.00000
C275        C  0.10526993  0.03064174  0.25938924    -0.08600
C276        C  0.08033854  0.51461364  0.28542886    -0.06000
C277        C  0.07874980  0.48358597  0.29673970    -0.00100
C278        C  0.10570417  0.46524581  0.29464319    -0.08500
C279        C  0.10485456  0.43173234  0.30685140     0.61900
H280        H  0.15360204  0.46429150  0.27418363     0.12500
H281        H  0.05588437  0.02873184  0.27068967     0.12600
C282        C  0.10347955  0.05947728  0.23334907     0.62100
F283        F  0.13363693  0.41798421  0.30208257    -0.23100
F284        F  0.08333333  0.41644695  0.28326238    -0.20400
F285        F  0.09644003  0.42881136  0.34711823    -0.20100
F286        F  0.11078553  0.05292196  0.19370033    -0.20100
F287        F  0.12442342  0.08089919  0.24760999    -0.20500
F288        F  0.07393158  0.07216212  0.23378571    -0.23100
C289        C  0.34367342  0.50415125  0.18439947    -0.06000
C290        C  0.32987536  0.02676061  0.21508525     0.00000
C291        C  0.34014836  0.03512407  0.25421922    -0.08600
C292        C  0.36621205  0.02078250  0.27089898    -0.06000
C293        C  0.38490419  0.00048157  0.24914472    -0.00100
C294        C  0.37214598  0.49174548  0.19938316    -0.08500
C295        C  0.38991548  0.46881690  0.17458039     0.61900
H296        H  0.33395134  0.49641827  0.15605175     0.12500
H297        H  0.37217236  0.02615274  0.30183167     0.12600
C298        C  0.32317117  0.05809587  0.28026244     0.62100
F299        F  0.37314966  0.45999279  0.14082096    -0.23100
F300        F  0.39609407  0.44295844  0.19777642    -0.20400
F301        F  0.41773780  0.48168596  0.16155337    -0.20100
F302        F  0.30991379  0.08079162  0.25663373    -0.20100
F303        F  0.34354342  0.07219987  0.30675883    -0.20500
F304        F  0.30020044  0.04341946  0.30267898    -0.23100
C305        C  0.34925552  0.38154505  0.37660048    -0.06000
C306        C  0.35765627  0.35060760  0.37485575     0.00000
C307        C  0.39003387  0.34320387  0.37711982    -0.08600
C308        C  0.41223714  0.36708143  0.37618265    -0.06000
C309        C  0.40376818  0.39804970  0.37325128    -0.00100
C310        C  0.37136906  0.40544430  0.37544589    -0.08500
C311        C  0.35934043  0.43810285  0.37522881     0.61900
H312        H  0.32471968  0.38713302  0.37721869     0.12500
H313        H  0.43681092  0.36145405  0.37616397     0.12600
C314        C  0.40181011  0.31053175  0.38015366     0.62100
F315        F  0.32720034  0.43943644  0.37929403    -0.23100
F316        F  0.36686240  0.45249197  0.33899084    -0.20400
F317        F  0.37222030  0.45379159  0.40724619    -0.20100
F318        F  0.39715900  0.29601581  0.34374805    -0.20100
F319        F  0.38631768  0.29494080  0.41089346    -0.20500
F320        F  0.43341934  0.30929585  0.38895842    -0.23100
C321        C  0.23010103  0.37836609  0.21531682    -0.06000
C322        C  0.25739469  0.37769900  0.23898505     0.00000
C323        C  0.27499141  0.40467494  0.24406484    -0.08600
C324        C  0.26319398  0.43212103  0.22800677    -0.06000
C325        C  0.23431853  0.43338954  0.20771341    -0.00100
C326        C  0.21788544  0.40600056  0.19983229    -0.08500
C327        C  0.18682407  0.40607800  0.17760068     0.61900
H328        H  0.21733610  0.35723899  0.21131106     0.12500
H329        H  0.27583111  0.45322924  0.23289804     0.12600
C330        C  0.30571733  0.40455246  0.26699066     0.62100
F331        F  0.17410582  0.37705589  0.17523470    -0.23100
F332        F  0.19090535  0.41719424  0.13855232    -0.20400
F333        F  0.16577306  0.42428409  0.19764241    -0.20100
F334        F  0.32504233  0.38225486  0.25189431    -0.20100
F335        F  0.30026294  0.39867513  0.30753857    -0.20500
F336        F  0.32113736  0.43231421  0.26350065    -0.23100
C337        C  0.24492638  0.13552128  0.28703966    -0.06000
C338        C  0.25692568  0.12826862  0.24861066     0.00000
C339        C  0.27977709  0.14802372  0.23035349    -0.08600
C340        C  0.28839800  0.17438772  0.25072898    -0.06000
C341        C  0.27487224  0.18253312  0.28739955    -0.00100
C342        C  0.25357910  0.16256482  0.30686544    -0.08500
C343        C  0.24009652  0.16991858  0.34793841     0.61900
H344        H  0.22831246  0.12007998  0.30124308     0.12500
H345        H  0.30496378  0.19014493  0.23697533     0.12600
C346        C  0.29509492  0.14260310  0.18928887     0.62100
F347        F  0.21848009  0.14824783  0.36062975    -0.23100
F348        F  0.22543308  0.19794995  0.34642895    -0.20400
F349        F  0.26393932  0.17078347  0.37620958    -0.20100
F350        F  0.27294617  0.14458763  0.15883309    -0.20100
F351        F  0.30922915  0.11432271  0.18888479    -0.20500
F352        F  0.31804147  0.16401128  0.18026592    -0.23100
C353        C  0.37498152  0.22238587  0.24124143    -0.06000
C354        C  0.36738759  0.25322769  0.23476580     0.00000
C355        C  0.38656193  0.27164419  0.20941817    -0.08600
C356        C  0.41517327  0.25945548  0.19599745    -0.06000
C357        C  0.42399435  0.22940327  0.20614527    -0.00100
C358        C  0.40301290  0.21014531  0.22737426    -0.08500
C359        C  0.41109584  0.17723419  0.23724136     0.61900
H360        H  0.35945015  0.20824799  0.25944346     0.12500
H361        H  0.43151709  0.27370491  0.17923604     0.12600
C362        C  0.37721952  0.30390329  0.19757464     0.62100
F363        F  0.43609156  0.17630597  0.26376854    -0.23100
F364        F  0.41884604  0.16252571  0.20196384    -0.20400
F365        F  0.38638430  0.16161827  0.25505326    -0.20100
F366        F  0.37158895  0.32080344  0.23176203    -0.20100
F367        F  0.35034038  0.30299769  0.17435209    -0.20500
F368        F  0.40023378  0.31856418  0.17511519    -0.23100
C369        C  0.17210447  0.24343041  0.29044319    -0.06000
C370        C  0.17613756  0.27492905  0.29643407     0.00000
C371        C  0.15079024  0.29496266  0.28977047    -0.08600
C372        C  0.12258154  0.28278375  0.27499425    -0.06000
C373        C  0.11952435  0.25164719  0.26613104    -0.00100
C374        C  0.14421561  0.23144051  0.27480299    -0.08500
C375        C  0.14172080  0.19786682  0.26480904     0.61900
H376        H  0.19194390  0.22855620  0.29512800     0.12500
H377        H  0.10325022  0.29780047  0.26776287     0.12600
C378        C  0.15425412  0.32911263  0.29539425     0.62100
F379        F  0.16829538  0.18193654  0.27607764    -0.23100
F380        F  0.13747012  0.19469248  0.22356842    -0.20400
F381        F  0.11654397  0.18502903  0.28501796    -0.20100
F382        F  0.17780685  0.34040539  0.27074264    -0.20100
F383        F  0.16155248  0.33493717  0.33532786    -0.20500
F384        F  0.12705760  0.34459933  0.28569681    -0.23100
C385        C  0.28131882  0.24651865  0.48435986    -0.06000
C386        C  0.26001071  0.26423467  0.46158089     0.00000
C387        C  0.23095688  0.27189757  0.47976045    -0.08600
C388        C  0.22401399  0.26008162  0.51870138    -0.06000
C389        C  0.24505566  0.24185048  0.54103011    -0.00100
C390        C  0.27482336  0.23571849  0.52390383    -0.08500
C391        C  0.30032548  0.21877840  0.54717683     0.61900
H392        H  0.30366309  0.24128727  0.47098146     0.12500
H393        H  0.20165575  0.26509916  0.53219006     0.12600
C394        C  0.20701905  0.29238952  0.45887832     0.62100
F395        F  0.32853384  0.21935139  0.52675557    -0.23100
F396        F  0.29187882  0.18853461  0.55291035    -0.20400
F397        F  0.30516061  0.23227523  0.58426054    -0.20100
F398        F  0.19789821  0.27985742  0.42252995    -0.20100
F399        F  0.21973039  0.32109567  0.45213209    -0.20500
F400        F  0.18044130  0.29606684  0.48205122    -0.23100
C401        C  0.11697491  0.22481058  0.78085996    -0.06000
C402        C  0.13793068  0.24760921  0.76849462     0.00000
C403        C  0.13087780  0.27863753  0.77580340    -0.08600
C404        C  0.10155615  0.28595824  0.79198233    -0.06000
C405        C  0.07906164  0.26331597  0.79933677    -0.00100
C406        C  0.08746315  0.23216591  0.79614013    -0.08500
C407        C  0.06577023  0.20601897  0.80720405     0.61900
H408        H  0.12303101  0.20108612  0.77672347     0.12500
H409        H  0.09497666  0.30960599  0.79531946     0.12600
C410        C  0.15355448  0.30400801  0.76449127     0.62100
F411        F  0.08154926  0.18511842  0.83138357    -0.23100
F412        F  0.05601722  0.19179357  0.77228089    -0.20400
F413        F  0.03995234  0.21555490  0.82850462    -0.20100
F414        F  0.15578291  0.30631170  0.72285479    -0.20100
F415        F  0.18265920  0.29775733  0.78077166    -0.20500
F416        F  0.14396684  0.33196269  0.77880780    -0.23100
C417        C  0.34889714  0.24060695  0.68876541    -0.06000
C418        C  0.33167139  0.21805304  0.70980287     0.00000
C419        C  0.34339973  0.20616731  0.74674067    -0.08600
C420        C  0.36902231  0.22028458  0.76448962    -0.06000
C421        C  0.38623462  0.24349158  0.74476185    -0.00100
C422        C  0.37667875  0.25317052  0.70533045    -0.08500
C423        C  0.39453141  0.27754217  0.68187256     0.61900
H424        H  0.33964885  0.24929463  0.66033199     0.12500
H425        H  0.37559271  0.21291229  0.79465087     0.12600
C426        C  0.32876963  0.17849654  0.76770919     0.62100
F427        F  0.37931619  0.28590747  0.64640414    -0.23100
F428        F  0.42369397  0.26667055  0.67171057    -0.20400
F429        F  0.39784090  0.30328969  0.70520106    -0.20100
F430        F  0.32220041  0.15669095  0.73922914    -0.20100
F431        F  0.30166307  0.18650090  0.78740698    -0.20500
F432        F  0.34874232  0.16544921  0.79601183    -0.23100
C433        C  0.27753205  0.10754406  0.73733908    -0.06000
C434        C  0.25482719  0.12414386  0.75849092     0.00000
C435        C  0.24560120  0.11338477  0.79753574    -0.08600
C436        C  0.25852176  0.08571335  0.81272533    -0.06000
C437        C  0.28001815  0.06888102  0.79008557    -0.00100
C438        C  0.29122923  0.08114576  0.75317723    -0.08500
C439        C  0.31663562  0.06603326  0.72864078     0.61900
H440        H  0.28543390  0.11554830  0.70788186     0.12500
H441        H  0.25054143  0.07612873  0.84125737     0.12600
C442        C  0.22107851  0.12974842  0.82196429     0.62100
F443        F  0.33564507  0.08790448  0.71051527    -0.23100
F444        F  0.30305443  0.04861006  0.69879725    -0.20400
F445        F  0.33552583  0.04776017  0.75274692    -0.20100
F446        F  0.21298009  0.11343519  0.85665240    -0.20100
F447        F  0.19436639  0.13371649  0.79885564    -0.20500
F448        F  0.23239663  0.15785878  0.83360139    -0.23100
C449        C  0.22064235  0.34314185  0.70380398    -0.06000
C450        C  0.24209508  0.31944646  0.70997107     0.00000
C451        C  0.27200855  0.32614638  0.72633848    -0.08600
C452        C  0.27785687  0.35556514  0.74086406    -0.06000
C453        C  0.25496136  0.37816934  0.73887554    -0.00100
C454        C  0.22641712  0.37248719  0.71868974    -0.08500
C455        C  0.20156896  0.39688547  0.71509018     0.61900
H456        H  0.19838995  0.33798907  0.68987284     0.12500
H457        H  0.29973190  0.36058604  0.75599207     0.12600
C458        C  0.29775183  0.30254309  0.72825721     0.62100
F459        F  0.17653500  0.38758741  0.69165888    -0.23100
F460        F  0.21413879  0.42299413  0.69746791    -0.20400
F461        F  0.19058917  0.40356503  0.75316064    -0.20100
F462        F  0.29878292  0.28717986  0.69209094    -0.20100
F463        F  0.29234452  0.28206243  0.75973819    -0.20500
F464        F  0.32670571  0.31593100  0.73431118    -0.23100
C465        C  0.01222088  0.47691335  0.53326029    -0.06000
C466        C  0.01721810  0.00782165  0.54135619     0.00000
C467        C  0.01702742  0.02864444  0.50797442    -0.08600
C468        C  0.50604092  0.01713116  0.47609903    -0.06000
C469        C  0.49611413  0.48723151  0.45692621    -0.00100
C470        C  0.50593525  0.46611429  0.48763656    -0.08500
C471        C  0.50877241  0.43207460  0.48016546     0.61900
H472        H  0.01782704  0.46112186  0.55775040     0.12500
H473        H  0.50353558  0.03297883  0.45079459     0.12600
C474        C  0.02708346  0.06170166  0.51241745     0.62100
F475        F  0.00541334  0.41541277  0.52541580    -0.23100
F476        F  0.02492415  0.42167985  0.46311369    -0.20400
F477        F  0.48080394  0.42077594  0.46549683    -0.20100
F478        F  0.05563413  0.06305880  0.53192422    -0.20100
F479        F  0.49872679  0.07549787  0.54126032    -0.20500
F480        F  0.52416121  0.07675314  0.48215566    -0.23100
C481        C  0.15227849  0.12388832  0.61446229    -0.06000
C482        C  0.14621440  0.15199914  0.63291593     0.00000
C483        C  0.11603443  0.15617128  0.65029435    -0.08600
C484        C  0.09409966  0.13196046  0.64982676    -0.06000
C485        C  0.10068982  0.10337954  0.63320908    -0.00100
C486        C  0.13020905  0.09964625  0.61393373    -0.08500
C487        C  0.13876297  0.07047033  0.59241735     0.61900
H488        H  0.17503021  0.12071750  0.60101090     0.12500
H489        H  0.07165939  0.13489943  0.66418343     0.12600
C490        C  0.10715785  0.18527352  0.67166278     0.62100
F491        F  0.16575028  0.07391433  0.56976173    -0.23100
F492        F  0.11502571  0.06232850  0.56624628    -0.20400
F493        F  0.14372347  0.04720001  0.62042915    -0.20100
F494        F  0.10704839  0.20956481  0.64441645    -0.20100
F495        F  0.12833140  0.19059431  0.70228539    -0.20500
F496        F  0.07777671  0.18352126  0.68895568    -0.23100
C497        C  0.15023531  0.45290793  0.79839098    -0.06000
C498        C  0.17295425  0.47472154  0.80755461     0.00000
C499        C  0.16610212  0.50615243  0.80247944    -0.08600
C500        C  0.14141786  0.02195880  0.77086551    -0.06000
C501        C  0.11704176  0.49264020  0.76999778    -0.00100
C502        C  0.12235393  0.46131735  0.77883244    -0.08500
C503        C  0.09932315  0.43684575  0.76620837     0.61900
H504        H  0.15568198  0.42904996  0.80338768     0.12500
H505        H  0.13903514  0.04341608  0.75431174     0.12600
C506        C  0.19487519  0.03887484  0.79029112     0.62100
F507        F  0.10779511  0.40823304  0.78073410    -0.23100
F508        F  0.09801182  0.43572003  0.72446849    -0.20400
F509        F  0.07004214  0.44339731  0.78120187    -0.20100
F510        F  0.20223647  0.54264974  0.77815228    -0.20100
F511        F  0.21810327  0.03106864  0.81754233    -0.20500
F512        F  0.18179126  0.06585403  0.80310759    -0.23100
C513        C  0.36938474  0.99973737  0.70102722    -0.06000
C514        C  0.36867435  0.49625832  0.74769148     0.00000
C515        C  0.39169996  0.51179047  0.77095300    -0.08600
C516        C  0.42550143  0.98411517  0.73800443    -0.06000
C517        C  0.42564253  0.00622988  0.70666241    -0.00100
C518        C  0.39735872  0.01309134  0.68621603    -0.08500
C519        C  0.39640083  0.03575623  0.65111327     0.61900
H520        H  0.34715977  0.00643480  0.68810477     0.12500
H521        H  0.44728184  0.97804661  0.75280255     0.12600
C522        C  0.39314373  0.51112539  0.81723601     0.62100
F523        F  0.36634785  0.03988379  0.63655916    -0.23100
F524        F  0.41457690  0.02523871  0.61977352    -0.20400
F525        F  0.40768208  0.06374640  0.66340519    -0.20100
F526        F  0.39744608  0.48143648  0.83097461    -0.20100
F527        F  0.39845876  0.96345579  0.82342312    -0.20500
F528        F  0.41778295  0.52817731  0.83218196    -0.23100
C529        C  0.46880334  0.12468873  0.76329483    -0.06000
C530        C  0.99530771  0.11091086  0.76650840     0.00000
C531        C  0.01208558  0.12490519  0.79846808    -0.08600
C532        C  0.50686886  0.15378423  0.81921533    -0.06000
C533        C  0.47964069  0.16845141  0.80534671    -0.00100
C534        C  0.45949970  0.15269397  0.77894224    -0.08500
C535        C  0.42820382  0.16580651  0.76719338     0.61900
H536        H  0.45376532  0.11332239  0.74180394     0.12500
H537        H  0.01488468  0.16529033  0.83565312     0.12600
C538        C  0.04104510  0.11031232  0.81651967     0.62100
F539        F  0.40999323  0.14539291  0.74587068    -0.23100
F540        F  0.43253632  0.19160966  0.74329273    -0.20400
F541        F  0.41249984  0.17308523  0.80214711    -0.20100
F542        F  0.06320540  0.10644037  0.78667360    -0.20100
F543        F  0.03334295  0.08226811  0.83360025    -0.20500
F544        F  0.05408807  0.12796052  0.84656641    -0.23100
C545        C  0.03505623  0.39801644  0.69560740    -0.06000
C546        C  0.01503207  0.42235037  0.70427745     0.00000
C547        C  0.98482645  0.41563188  0.71967944    -0.08600
C548        C  0.47664885  0.38544668  0.73837031    -0.06000
C549        C  0.99883409  0.36207955  0.72776451    -0.00100
C550        C  0.02736316  0.36771300  0.70723870    -0.08500
C551        C  0.05006899  0.34203957  0.69971158     0.61900
H552        H  0.05753009  0.40309002  0.68212113     0.12500
H553        H  0.45508679  0.38001997  0.75403402     0.12600
C554        C  0.45623868  0.43873398  0.72726352     0.62100
F555        F  0.07612113  0.35205431  0.67853121    -0.23100
F556        F  0.03548800  0.31968318  0.67734070    -0.20400
F557        F  0.05988626  0.32957152  0.73621208    -0.20100
F558        F  0.45337395  0.45541324  0.69158341    -0.20100
F559        F  0.96978404  0.45703249  0.75856810    -0.20500
F560        F  0.42762960  0.42509441  0.73524618    -0.23100
Fe561      Fe  0.06389252  0.50397230  0.65676522     1.65800
Fe562      Fe  0.00795850  0.55968745  0.65566995     1.73200
Fe563      Fe  0.02317221  0.51878652  0.74199647     1.54400
O564        O  0.01351192  0.97214392  0.72258443    -0.81900
O565        O  0.00506152  0.58755129  0.70478442    -0.80200
O566        O  0.05107489  0.96498481  0.67643041    -0.84400
O567        O  0.09091256  0.49587043  0.70761849    -0.79200
O568        O  0.47236157  0.52127273  0.72388334    -0.81000
O569        O  0.05083578  0.58093095  0.64020330    -0.83700
C570        C  0.09075157  0.50269747  0.74463853     0.97000
C571        C  0.02923895  0.95503939  0.69940809     1.04500
O572        O  0.03162155  0.52762307  0.68470489    -1.12700
O573        O  0.50330465  0.53818819  0.59547471    -0.75200
O574        O  0.04371977  0.50492869  0.60015314    -0.78600
O575        O  0.06880503  0.51736989  0.76044421    -0.79300
C576        C  0.02068481  0.51771176  0.58325934     0.95900
O577        O  0.08783824  0.54465728  0.64557099    -0.77300
O578        O  0.46140031  0.54286838  0.66400043    -0.82500
C579        C  0.00944897  0.58721656  0.74273236     0.98500
C580        C  0.45304886  0.52978084  0.69700197     1.04500
O581        O  0.02074089  0.56401782  0.76094805    -0.78100
C582        C  0.07957807  0.57252275  0.64072158     1.02800
Fe583      Fe  0.18839167  0.73788261  0.65291248     1.65800
Fe584      Fe  0.24494532  0.68287184  0.64937450     1.73200
Fe585      Fe  0.23324600  0.72222625  0.73627421     1.54400
O586        O  0.23438957  0.76873940  0.72496834    -0.81900
O587        O  0.24962534  0.65384284  0.69838478    -0.80200
O588        O  0.20947476  0.77959299  0.66684350    -0.84400
O589        O  0.16124895  0.74050204  0.70428063    -0.79200
O590        O  0.27919751  0.72209032  0.72252745    -0.81000
O591        O  0.20267255  0.66133410  0.63633909    -0.83700
C592        C  0.16384995  0.73476439  0.74182025     0.97000
C593        C  0.22600583  0.78744770  0.69719821     1.04500
O594        O  0.22212005  0.71431940  0.67950068    -1.12700
O595        O  0.24567429  0.70586138  0.59462956    -0.75200
O596        O  0.20933386  0.74111912  0.59657000    -0.78600
O597        O  0.18845719  0.72430742  0.75776098    -0.79300
C598        C  0.23089129  0.72760929  0.57809061     0.95900
O599        O  0.16529003  0.69709648  0.63869423    -0.77300
O600        O  0.28862678  0.70212775  0.66205087    -0.82500
C601        C  0.24510290  0.65327003  0.73625377     0.98500
C602        C  0.29757998  0.71488785  0.69448221     1.04500
O603        O  0.23487257  0.67640624  0.75457893    -0.78100
C604        C  0.17401280  0.66940172  0.63479411     1.02800
Fe605      Fe  0.26127393  0.81540564  0.34824065     1.65800
Fe606      Fe  0.31539878  0.75907884  0.34307739     1.73200
Fe607      Fe  0.27654844  0.78144808  0.25810486     1.54400
O608        O  0.22956622  0.77865651  0.26890683    -0.81900
O609        O  0.34337005  0.75673897  0.29297724    -0.80200
O610        O  0.21898274  0.79555074  0.33110635    -0.84400
O611        O  0.25772159  0.84749094  0.30221951    -0.79200
O612        O  0.27733071  0.73461091  0.26297437    -0.81000
O613        O  0.33950595  0.79811729  0.36127243    -0.83700
C614        C  0.26346994  0.84950557  0.26478195     0.97000
C615        C  0.21110079  0.78223014  0.29850321     1.04500
O616        O  0.28445707  0.78553214  0.31648762    -1.12700
O617        O  0.29347587  0.75410724  0.39802240    -0.75200
O618        O  0.25819648  0.79003560  0.40127616    -0.78600
O619        O  0.27386694  0.82746945  0.24474802    -0.79300
C620        C  0.27194579  0.76722681  0.41669761     0.95900
O621        O  0.30385766  0.83525286  0.36544323    -0.77300
O622        O  0.29229142  0.71967812  0.32502886    -0.82500
C623        C  0.34461935  0.76682601  0.25693046     0.98500
C624        C  0.28110960  0.71408956  0.29015957     1.04500
O625        O  0.32298738  0.78263613  0.24117310    -0.78100
C626        C  0.33225735  0.82594668  0.36750180     1.02800
Fe627      Fe  0.49940807  0.93460131  0.35510352     1.65800
Fe628      Fe  0.44436749  0.99030312  0.35744299     1.73200
Fe629      Fe  0.48338834  0.97740054  0.26956279     1.54400
O630        O  0.03043756  0.97574629  0.27228778    -0.81900
O631        O  0.41534406  0.99467633  0.30837471    -0.80200
O632        O  0.04061511  0.96104908  0.33628298    -0.84400
O633        O  0.00669133  0.90992192  0.29899517    -0.79200
O634        O  0.49041891  0.51941343  0.26757226    -0.81000
O635        O  0.42145810  0.94970141  0.37256573    -0.83700
C636        C  0.49536847  0.90828380  0.26822704     0.97000
C637        C  0.04836158  0.97423129  0.30301013     1.04500
O638        O  0.47577751  0.96734443  0.32733416    -1.12700
O639        O  0.47002409  0.49624075  0.39416839    -0.75200
O640        O  0.50369889  0.95561612  0.41040766    -0.78600
O641        O  0.48667106  0.93262632  0.25040640    -0.79300
C642        C  0.49007964  0.97701865  0.42824130     0.95900
O643        O  0.45730613  0.91287797  0.37160184    -0.77300
O644        O  0.46095175  0.53099817  0.32122131    -0.82500
C645        C  0.41380536  0.98950592  0.27079198     0.98500
C646        C  0.47957359  0.53829752  0.29253942     1.04500
O647        O  0.43659538  0.97782143  0.25224265    -0.78100
C648        C  0.42889397  0.92159870  0.37531071     1.02800
Fe649      Fe  0.43994919  0.75526469  0.84881288     1.65800
Fe650      Fe  0.99924541  0.81104079  0.84624194     1.73200
Fe651      Fe  0.48177398  0.76837030  0.76231496     1.54400
O652        O  0.47956655  0.72202192  0.77331542    -0.81900
O653        O  0.50107447  0.83791001  0.79604880    -0.80200
O654        O  0.45779589  0.71236409  0.83341141    -0.84400
O655        O  0.41111329  0.75476028  0.79963073    -0.79200
O656        O  0.02967238  0.76468417  0.77551965    -0.81000
O657        O  0.45365616  0.83347048  0.85788343    -0.83700
C658        C  0.41152971  0.75897231  0.76156921     0.97000
C659        C  0.47084341  0.70355414  0.80101662     1.04500
O660        O  0.47224278  0.77824508  0.81910821    -1.12700
O661        O  0.00025173  0.79155058  0.90354937    -0.75200
O662        O  0.46451321  0.75120801  0.90224243    -0.78600
O663        O  0.43572216  0.76818757  0.74291428    -0.79300
C664        C  0.48462213  0.76743922  0.91980090     0.95900
O665        O  0.41852583  0.79611438  0.86571343    -0.77300
O666        O  0.04059730  0.78813954  0.83393235    -0.82500
C667        C  0.49692987  0.83652967  0.75834978     0.98500
C668        C  0.04814117  0.77128110  0.80434345     1.04500
O669        O  0.48606029  0.81305918  0.74148302    -0.78100
C670        C  0.42586881  0.82448466  0.86513508     1.02800
Fe671      Fe  0.31430858  0.98372611  0.84695640     1.65800
Fe672      Fe  0.25495195  0.93135593  0.85076252     1.73200
Fe673      Fe  0.26986118  0.97207505  0.76297626     1.54400
O674        O  0.26273085  0.51757775  0.78158706    -0.81900
O675        O  0.24981874  0.90224887  0.80221210    -0.80200
O676        O  0.30083151  0.52576313  0.82646876    -0.84400
O677        O  0.34179306  0.98417486  0.79609611    -0.79200
O678        O  0.22377231  0.97766021  0.77759680    -0.81000
O679        O  0.29569111  0.90758759  0.86618841    -0.83700
C680        C  0.34035322  0.97695576  0.75917945     0.97000
C681        C  0.27977914  0.53539811  0.80188289     1.04500
O682        O  0.27967132  0.96226019  0.82021272    -1.12700
O683        O  0.25434798  0.95466889  0.90520938    -0.75200
O684        O  0.29302988  0.98791548  0.90237333    -0.78600
O685        O  0.31522440  0.96848391  0.74240802    -0.79300
C686        C  0.27008342  0.97608545  0.92070633     0.95900
O687        O  0.33424224  0.94198217  0.86274043    -0.77300
O688        O  0.21332126  0.95348344  0.83638819    -0.82500
C689        C  0.25351996  0.90364368  0.76416562     0.98500
C690        C  0.20559222  0.97093215  0.80678690     1.04500
O691        O  0.26239093  0.92764605  0.74578417    -0.78100
C692        C  0.32467754  0.91449330  0.86761374     1.02800
Fe693      Fe  0.00757134  0.68972610  0.15451854     1.65800
Fe694      Fe  0.06710585  0.74142879  0.15695452     1.73200
Fe695      Fe  0.02445444  0.72584085  0.24253958     1.54400
O696        O  0.47846616  0.72593544  0.23021996    -0.81900
O697        O  0.09656087  0.74065392  0.20574219    -0.80200
O698        O  0.46948943  0.71132975  0.16665432    -0.84400
O699        O  0.00232913  0.66050246  0.20315308    -0.79200
O700        O  0.02431395  0.77210300  0.23274844    -0.81000
O701        O  0.08681377  0.69981386  0.13864423    -0.83700
C702        C  0.00982094  0.65834018  0.24018895     0.97000
C703        C  0.46061264  0.72272536  0.19987469     1.04500
O704        O  0.03322116  0.71900602  0.18468836    -1.12700
O705        O  0.04426578  0.74794329  0.10261194    -0.75200
O706        O  0.00692951  0.71315228  0.10017681    -0.78600
O707        O  0.02299698  0.68001039  0.25857995    -0.79300
C708        C  0.02193064  0.73515022  0.08458596     0.95900
O709        O  0.04745745  0.66612269  0.13849515    -0.77300
O710        O  0.04896025  0.78355540  0.17478411    -0.82500
C711        C  0.09521133  0.73542232  0.24337025     0.98500
C712        C  0.03306002  0.79120848  0.20568967     1.04500
O713        O  0.07041403  0.72728033  0.26127516    -0.78100
C714        C  0.07636339  0.67251625  0.13451883     1.02800
Fe715      Fe  0.24318188  0.56397922  0.14192616     1.65800
Fe716      Fe  0.18611835  0.51067824  0.15025088     1.73200
Fe717      Fe  0.22756409  0.53005233  0.23324150     1.54400
O718        O  0.27408967  0.52468620  0.22311750    -0.81900
O719        O  0.16047229  0.50556189  0.20275373    -0.80200
O720        O  0.28621630  0.54647281  0.16332622    -0.84400
O721        O  0.24381869  0.59687511  0.18467125    -0.79200
O722        O  0.22873431  0.98520577  0.23290109    -0.81000
O723        O  0.16259186  0.55064635  0.13606758    -0.83700
C724        C  0.24279852  0.59876810  0.22261923     0.97000
C725        C  0.29371751  0.53230201  0.19613089     1.04500
O726        O  0.21919348  0.53514999  0.17511558    -1.12700
O727        O  0.20939511  0.00937034  0.09801622    -0.75200
O728        O  0.24796552  0.53594691  0.09322112    -0.78600
O729        O  0.23488814  0.57620108  0.24505921    -0.79300
C730        C  0.22953759  0.51775107  0.07616948     0.95900
O731        O  0.20101210  0.58364735  0.12050192    -0.77300
O732        O  0.20909158  0.97337457  0.17203332    -0.82500
C733        C  0.15990387  0.51737493  0.23740554     0.98500
C734        C  0.22287677  0.96618849  0.20516418     1.04500
O735        O  0.18151674  0.53453665  0.24990260    -0.78100
C736        C  0.17188054  0.57722949  0.12460260     1.02800
C737        C  0.12928331  0.65473069  0.11234919    -0.06000
C738        C  0.09905711  0.64699512  0.12597879     0.00000
C739        C  0.09215754  0.61538844  0.13290428    -0.11000
C740        C  0.11619913  0.59374611  0.12868811    -0.06000
C741        C  0.14721605  0.60175613  0.11896347    -0.00100
C742        C  0.15331839  0.63285126  0.10811923    -0.08500
C743        C  0.18473075  0.64339330  0.09182584     0.61900
H744        H  0.13430331  0.67851405  0.10578930     0.12500
H745        H  0.11091723  0.56997986  0.13465677     0.12600
C746        C  0.06011790  0.60386594  0.14636373     0.62100
F747        F  0.18380733  0.67321031  0.07734921    -0.23100
F748        F  0.19351178  0.62515063  0.06006040    -0.20400
F749        F  0.20691057  0.64194148  0.12220492    -0.20100
F750        F  0.03799572  0.61113059  0.11722511    -0.20100
F751        F  0.05223867  0.61674844  0.18285244    -0.20500
F752        F  0.05927055  0.57248838  0.15200060    -0.23100
C753        C  0.24893412  0.96674642  0.99029433    -0.06000
C754        C  0.26140129  0.98759438  0.96171464     0.00000
C755        C  0.26791656  0.46888010  0.99762637    -0.08600
C756        C  0.25739841  0.48038326  0.03471242    -0.06000
C757        C  0.23811012  0.50608496  0.03614438    -0.00100
C758        C  0.23998412  0.97563548  0.02954585    -0.08500
C759        C  0.22898022  0.95148635  0.05988315     0.61900
H760        H  0.24666692  0.94308748  0.98176953     0.12500
H761        H  0.26438879  0.46958032  0.06302889     0.12600
C762        C  0.28939038  0.44142520  0.99728836     0.62100
F763        F  0.23219549  0.92228763  0.04511170    -0.23100
F764        F  0.19780060  0.95579321  0.06874169    -0.20400
F765        F  0.24648003  0.95328171  0.09504296    -0.20100
F766        F  0.31697164  0.44911539  0.97787419    -0.20100
F767        F  0.27514393  0.41769190  0.97719061    -0.20500
F768        F  0.29662247  0.43123479  0.03607602    -0.23100
C769        C  0.99535592  0.78196991  0.99278252    -0.06000
C770        C  0.49561890  0.75879729  0.96109094     0.00000
C771        C  0.50071842  0.72806579  0.97349453    -0.08600
C772        C  0.51052044  0.72210464  0.01346800    -0.06000
C773        C  0.01385618  0.74508041  0.04296586    -0.00100
C774        C  0.00321726  0.77488193  0.03331080    -0.08500
C775        C  0.99887460  0.79852721  0.06589690     0.61900
H776        H  0.98675096  0.80446376  0.98467815     0.12500
H777        H  0.51367070  0.69872036  0.02375475     0.12600
C778        C  0.49712959  0.70163675  0.94455281     0.62100
F779        F  0.98690818  0.82556036  0.05025684    -0.23100
F780        F  0.02721130  0.80501957  0.08398704    -0.20400
F781        F  0.97835821  0.78741400  0.09493339    -0.20100
F782        F  0.51355880  0.70779343  0.90933070    -0.20100
F783        F  0.46594806  0.69715771  0.93543055    -0.20500
F784        F  0.50857969  0.67465280  0.96102077    -0.23100
C785        C  0.36912014  0.83780515  0.86799754    -0.06000
C786        C  0.40038138  0.84776138  0.87113265     0.00000
C787        C  0.40592002  0.87943453  0.87760227    -0.08600
C788        C  0.38022017  0.89945196  0.87928776    -0.06000
C789        C  0.34912326  0.88989380  0.87309231    -0.00100
C790        C  0.34345500  0.85803220  0.86834997    -0.08500
C791        C  0.31083688  0.84494802  0.86234163     0.61900
H792        H  0.36482589  0.81377177  0.86341038     0.12500
H793        H  0.38457115  0.92345738  0.88391954     0.12600
C794        C  0.43860099  0.89282876  0.88192908     0.62100
F795        F  0.31099452  0.81349023  0.85903203    -0.23100
F796        F  0.29789730  0.85681791  0.82713995    -0.20400
F797        F  0.29224512  0.85192417  0.89506682    -0.20100
F798        F  0.45441244  0.89081910  0.84560710    -0.20100
F799        F  0.45476908  0.87731477  0.91209611    -0.20500
F800        F  0.43805390  0.92333789  0.89215495    -0.23100
C801        C  0.51760355  0.58119063  0.29270126    -0.06000
C802        C  0.48718144  0.57052760  0.28493254     0.00000
C803        C  0.96179054  0.58844206  0.26458171    -0.08600
C804        C  0.97241035  0.61633578  0.24893394    -0.06000
C805        C  0.00047217  0.62977991  0.26186075    -0.00100
C806        C  0.52750456  0.61036283  0.27900802    -0.08500
C807        C  0.56098565  0.62067010  0.28534644     0.61900
H808        H  0.53380129  0.56605411  0.30821001     0.12500
H809        H  0.95885385  0.62766615  0.22555264     0.12600
C810        C  0.93064900  0.57565290  0.25068299     0.62100
F811        F  0.57875726  0.59822928  0.30417586    -0.23100
F812        F  0.56156855  0.64622762  0.30930349    -0.20400
F813        F  0.57454848  0.62772889  0.24836448    -0.20100
F814        F  0.91197427  0.57051127  0.28414293    -0.20100
F815        F  0.93509693  0.54859308  0.23065931    -0.20500
F816        F  0.91506462  0.59551267  0.22469817    -0.23100
C817        C  0.03195404  0.87778276  0.22000969    -0.06000
C818        C  0.00333826  0.88075208  0.24036117     0.00000
C819        C  0.98370124  0.85507331  0.24522601    -0.08600
C820        C  0.99333294  0.82703704  0.22974605    -0.06000
C821        C  0.02281192  0.82328491  0.21174053    -0.00100
C822        C  0.04231441  0.84923399  0.20588184    -0.08500
C823        C  0.07449177  0.84652944  0.18718863     0.61900
H824        H  0.04691851  0.89770039  0.21740118     0.12500
H825        H  0.97844114  0.80718345  0.23373791     0.12600
C826        C  0.45765268  0.85255319  0.28575045     0.62100
F827        F  0.09024231  0.87417865  0.18641302    -0.23100
F828        F  0.07174638  0.83671818  0.14776600    -0.20400
F829        F  0.09221088  0.82586047  0.20938732    -0.20100
F830        F  0.95988509  0.86597279  0.30787876    -0.20100
F831        F  0.44108526  0.82540300  0.28552482    -0.20500
F832        F  0.43688258  0.87613925  0.27863625    -0.23100
C833        C  0.13503896  0.98937521  0.29111599    -0.06000
C834        C  0.13371207  0.01526855  0.26558150     0.00000
C835        C  0.10754002  0.52747099  0.26862787    -0.08600
C836        C  0.07820673  0.01794870  0.27654676    -0.06000
C837        C  0.07877853  0.98988115  0.29802017    -0.00100
C838        C  0.10775421  0.97612666  0.30746797    -0.08500
C839        C  0.10972493  0.94690691  0.33251845     0.61900
H840        H  0.15738834  0.97830700  0.29559155     0.12500
H841        H  0.05932678  0.52820536  0.28741601     0.12600
C842        C  0.10776013  0.56033394  0.25363984     0.62100
F843        F  0.14019358  0.93683914  0.33657864    -0.23100
F844        F  0.09251182  0.92412646  0.31431832    -0.20400
F845        F  0.09808926  0.95194096  0.37083734    -0.20100
F846        F  0.11441174  0.56149306  0.21275810    -0.20100
F847        F  0.13027978  0.57656570  0.27435147    -0.20500
F848        F  0.07920628  0.57423393  0.25933456    -0.23100
C849        C  0.34823507  0.00677789  0.19244337    -0.06000
C850        C  0.32665555  0.52558156  0.20661445     0.00000
C851        C  0.33875943  0.53563094  0.24408198    -0.08600
C852        C  0.36571071  0.52214632  0.25964823    -0.06000
C853        C  0.38283168  0.50049008  0.23831721    -0.00100
C854        C  0.37612593  0.99385220  0.20851814    -0.08500
C855        C  0.39522669  0.97272084  0.18259509     0.61900
H856        H  0.33994024  0.00051857  0.16271533     0.12500
H857        H  0.37368680  0.52905469  0.28928381     0.12600
C858        C  0.32283937  0.55917583  0.27012312     0.62100
F859        F  0.38102537  0.96747712  0.14564650    -0.23100
F860        F  0.39885402  0.94487937  0.20234177    -0.20400
F861        F  0.42419123  0.98564083  0.17505691    -0.20100
F862        F  0.30472948  0.57882847  0.24730184    -0.20100
F863        F  0.34482621  0.57678565  0.28991939    -0.20500
F864        F  0.30432535  0.54448137  0.29866312    -0.23100
C865        C  0.34893227  0.87995980  0.37935054    -0.06000
C866        C  0.35780577  0.84920370  0.37560176     0.00000
C867        C  0.39040563  0.84243739  0.37742871    -0.08600
C868        C  0.41215270  0.86670817  0.38071234    -0.06000
C869        C  0.40336106  0.89765536  0.38034961    -0.00100
C870        C  0.37070470  0.90425262  0.38142927    -0.08500
C871        C  0.35808350  0.93657294  0.38432639     0.61900
H872        H  0.32429319  0.88520580  0.37908272     0.12500
H873        H  0.43672794  0.86152364  0.38236383     0.12600
C874        C  0.40294008  0.81004245  0.37520067     0.62100
F875        F  0.32600051  0.93700448  0.38945729    -0.23100
F876        F  0.36471521  0.95287881  0.34916271    -0.20400
F877        F  0.37123710  0.95088919  0.41730143    -0.20100
F878        F  0.39608683  0.79790246  0.33780437    -0.20100
F879        F  0.38984011  0.79210199  0.40558098    -0.20500
F880        F  0.43504236  0.80894122  0.38007590    -0.23100
C881        C  0.22447939  0.88132867  0.22962942    -0.06000
C882        C  0.25531612  0.87817689  0.24356595     0.00000
C883        C  0.27623650  0.90304476  0.24063332    -0.08600
C884        C  0.26510975  0.93100214  0.22500448    -0.06000
C885        C  0.23378315  0.93467690  0.21286686    -0.00100
C886        C  0.21318310  0.90939413  0.21442721    -0.08500
C887        C  0.17915534  0.91250578  0.20220441     0.61900
H888        H  0.20893718  0.86183706  0.23233377     0.12500
H889        H  0.28048664  0.95070063  0.22380496     0.12600
C890        C  0.30967487  0.90018881  0.25544774     0.62100
F891        F  0.16271796  0.88557614  0.20842758    -0.23100
F892        F  0.17720059  0.92028845  0.16154778    -0.20400
F893        F  0.16509745  0.93493042  0.22476022    -0.20100
F894        F  0.32421124  0.87644129  0.23599272    -0.20100
F895        F  0.30986931  0.89434260  0.29670414    -0.20500
F896        F  0.32674560  0.92658827  0.24799679    -0.23100
C897        C  0.24253673  0.63593835  0.27950142    -0.06000
C898        C  0.25342727  0.62802727  0.24081763     0.00000
C899        C  0.27604471  0.64734069  0.22125533    -0.08600
C900        C  0.28553010  0.67401430  0.24055138    -0.06000
C901        C  0.27354675  0.68259827  0.27793791    -0.00100
C902        C  0.25208549  0.66319581  0.29837423    -0.08500
C903        C  0.23880272  0.67166849  0.33916486     0.61900
H904        H  0.22595843  0.62089490  0.29452413     0.12500
H905        H  0.30199229  0.68934072  0.22574815     0.12600
C906        C  0.29055692  0.64075676  0.18007575     0.62100
F907        F  0.21733416  0.65028943  0.35312408    -0.23100
F908        F  0.22398796  0.69958240  0.33618065    -0.20400
F909        F  0.26267924  0.67349268  0.36727671    -0.20100
F910        F  0.26816922  0.64333226  0.15003216    -0.20100
F911        F  0.30328948  0.61185294  0.17997329    -0.20500
F912        F  0.31435769  0.66103496  0.17024011    -0.23100
C913        C  0.37690915  0.72506835  0.23372940    -0.06000
C914        C  0.37135192  0.75660029  0.23273724     0.00000
C915        C  0.39346312  0.77660715  0.21479914    -0.08600
C916        C  0.42177186  0.76425845  0.20078480    -0.06000
C917        C  0.42816874  0.73288920  0.20480428    -0.00100
C918        C  0.40532734  0.71292805  0.22101491    -0.08500
C919        C  0.41222216  0.67947263  0.22855471     0.61900
H920        H  0.35956956  0.71016509  0.24759052     0.12500
H921        H  0.43984879  0.77918576  0.18875421     0.12600
C922        C  0.38768107  0.81067860  0.21230092     0.62100
F923        F  0.43554689  0.67696163  0.25741412    -0.23100
F924        F  0.42185839  0.66628865  0.19297334    -0.20400
F925        F  0.38633129  0.66354861  0.24262692    -0.20100
F926        F  0.38183435  0.82179478  0.25048007    -0.20100
F927        F  0.36211506  0.81635421  0.18771840    -0.20500
F928        F  0.41307642  0.82634263  0.19633697    -0.23100
C929        C  0.17908235  0.73910299  0.27632128    -0.06000
C930        C  0.17985801  0.76819548  0.29382685     0.00000
C931        C  0.15157834  0.78381763  0.30070620    -0.08600
C932        C  0.12347964  0.77024495  0.28773562    -0.06000
C933        C  0.12328586  0.74249545  0.26701353    -0.00100
C934        C  0.15126540  0.72617322  0.26204898    -0.08500
C935        C  0.15182982  0.69586577  0.24038530     0.61900
H936        H  0.20092993  0.72736937  0.27141137     0.12500
H937        H  0.10165482  0.78243469  0.29059778     0.12600
C938        C  0.15125798  0.81549062  0.31854060     0.62100
F939        F  0.18096225  0.68231658  0.24248811    -0.23100
F940        F  0.14432198  0.70021967  0.19997894    -0.20400
F941        F  0.13039528  0.67605924  0.25795879    -0.20100
F942        F  0.16943235  0.83506707  0.29514913    -0.20100
F943        F  0.16293838  0.81432293  0.35757987    -0.20500
F944        F  0.12137801  0.82736710  0.31997822    -0.23100
C945        C  0.23144726  0.76231470  0.47031312    -0.06000
C946        C  0.26198004  0.75560953  0.45763612     0.00000
C947        C  0.28175248  0.73869510  0.48440303    -0.08600
C948        C  0.27045762  0.73042195  0.52311885    -0.06000
C949        C  0.24011595  0.73763989  0.53612059    -0.00100
C950        C  0.21992380  0.75337353  0.50869711    -0.08500
C951        C  0.18613070  0.76031116  0.51898050     0.61900
H952        H  0.21634573  0.77469192  0.44954756     0.12500
H953        H  0.28562561  0.71816544  0.54390793     0.12600
C954        C  0.31478428  0.72948393  0.47298279     0.62100
F955        F  0.16983715  0.77183524  0.48589387    -0.23100
F956        F  0.18500351  0.78181996  0.54909117    -0.20400
F957        F  0.17109272  0.73389297  0.53181049    -0.20100
F958        F  0.33194552  0.75502718  0.46166340    -0.20100
F959        F  0.31375841  0.70914819  0.44140786    -0.20500
F960        F  0.33036720  0.71529250  0.50483315    -0.23100
C961        C  0.11329789  0.72051034  0.77175543    -0.06000
C962        C  0.13726747  0.74196395  0.76786284     0.00000
C963        C  0.13394934  0.77123753  0.78494962    -0.08600
C964        C  0.10505051  0.77929968  0.80163972    -0.06000
C965        C  0.07996076  0.75881513  0.80156139    -0.00100
C966        C  0.08492910  0.72820463  0.78981895    -0.08500
C967        C  0.06028461  0.70363796  0.79442889     0.61900
H968        H  0.11641933  0.69792840  0.75947479     0.12500
H969        H  0.10105953  0.80241860  0.81140223     0.12600
C970        C  0.16004924  0.79453048  0.78252550     0.62100
F971        F  0.07398199  0.67616944  0.80546948    -0.23100
F972        F  0.04474620  0.70010396  0.75806287    -0.20400
F973        F  0.03920664  0.71094510  0.82428868    -0.20100
F974        F  0.16616641  0.80108767  0.74241233    -0.20100
F975        F  0.18661042  0.78289390  0.80086059    -0.20500
F976        F  0.15236889  0.82147169  0.80135467    -0.23100
C977        C  0.34628120  0.74505663  0.68350356    -0.06000
C978        C  0.33056057  0.72097691  0.70348418     0.00000
C979        C  0.34264680  0.70897433  0.74016686    -0.08600
C980        C  0.36772849  0.72359819  0.75808869    -0.06000
C981        C  0.38356610  0.74804422  0.73924877    -0.00100
C982        C  0.37318268  0.75872723  0.70067642    -0.08500
C983        C  0.38881324  0.78552702  0.67925552     0.61900
H984        H  0.33637562  0.75409756  0.65563951     0.12500
H985        H  0.37502139  0.71564063  0.78776410     0.12600
C986        C  0.32872188  0.68085506  0.76094576     0.62100
F987        F  0.37239434  0.79471672  0.64504832    -0.23100
F988        F  0.41854643  0.77751618  0.66734568    -0.20400
F989        F  0.39055351  0.81001892  0.70507460    -0.20100
F990        F  0.32426310  0.65862844  0.73246150    -0.20100
F991        F  0.30064231  0.68771535  0.77906087    -0.20500
F992        F  0.34816266  0.66894376  0.79069700    -0.23100
C993        C  0.27982801  0.60865047  0.74169786    -0.06000
C994        C  0.25495208  0.62486191  0.75871946     0.00000
C995        C  0.24122417  0.61325573  0.79500698    -0.08600
C996        C  0.25176633  0.58484758  0.81109432    -0.06000
C997        C  0.27592068  0.56844402  0.79266726    -0.00100
C998        C  0.29123206  0.58147396  0.75873925    -0.08500
C999        C  0.31892999  0.56607732  0.73940470     0.61900
H1000       H  0.29016609  0.61705697  0.71382652     0.12500
H1001       H  0.24039115  0.57463265  0.83722056     0.12600
C1002       C  0.21459738  0.62970817  0.81532310     0.62100
F1003       F  0.33354547  0.58476700  0.71097861    -0.23100
F1004       F  0.30907405  0.53999157  0.72027946    -0.20400
F1005       F  0.34064494  0.55874156  0.76891739    -0.20100
F1006       F  0.20298154  0.61327600  0.84814227    -0.20100
F1007       F  0.19047296  0.63420622  0.78795961    -0.20500
F1008       F  0.22493740  0.65758735  0.82917825    -0.23100
C1009       C  0.21202735  0.84205273  0.70418119    -0.06000
C1010       C  0.23543575  0.81980628  0.70252378     0.00000
C1011       C  0.26617171  0.82755021  0.71489085    -0.08600
C1012       C  0.27133798  0.85529013  0.73460157    -0.06000
C1013       C  0.24709947  0.87607922  0.74029665    -0.00100
C1014       C  0.21724839  0.87008502  0.72355107    -0.08500
C1015       C  0.19083134  0.89276918  0.72763360     0.61900
H1016       H  0.18905168  0.83652768  0.69271815     0.12500
H1017       H  0.29447014  0.86069729  0.74585130     0.12600
C1018       C  0.29397735  0.80715868  0.70750765     0.62100
F1019       F  0.16363577  0.88258215  0.70945967    -0.23100
F1020       F  0.19922363  0.92022953  0.70945309    -0.20400
F1021       F  0.18469923  0.89743365  0.76814860    -0.20100
F1022       F  0.28778718  0.78625107  0.67760867    -0.20100
F1023       F  0.30187257  0.79183846  0.74296096    -0.20500
F1024       F  0.31923826  0.82463208  0.69484161    -0.23100
C1025       C  0.00880615  0.97724346  0.53514300    -0.06000
C1026       C  0.01204885  0.50825891  0.54159404     0.00000
C1027       C  0.00449672  0.52935320  0.51013470    -0.08600
C1028       C  0.49350758  0.51825004  0.46689738    -0.06000
C1029       C  0.50057746  0.98601872  0.46933614    -0.00100
C1030       C  0.50402371  0.96480337  0.50193110    -0.08500
C1031       C  0.49824603  0.93091424  0.49635889     0.61900
H1032       H  0.00895022  0.96171260  0.56099429     0.12500
H1033       H  0.48609106  0.53427815  0.44357423     0.12600
C1034       C  0.00310453  0.56346413  0.51736229     0.62100
F1035       F  0.98707089  0.91874500  0.52955727    -0.23100
F1036       F  0.00838257  0.91830062  0.46785033    -0.20400
F1037       F  0.46900750  0.92633577  0.47955597    -0.20100
F1038       F  0.03029871  0.57323166  0.53585627    -0.20100
F1039       F  0.47241422  0.56785858  0.54006327    -0.20500
F1040       F  0.49119472  0.57967771  0.47871251    -0.23100
C1041       C  0.15320011  0.62025027  0.66064087    -0.06000
C1042       C  0.14990316  0.64459573  0.63287860     0.00000
C1043       C  0.12378864  0.64474763  0.60631880    -0.08600
C1044       C  0.10154006  0.62070699  0.60926481    -0.06000
C1045       C  0.10475317  0.59643945  0.63746601    -0.00100
C1046       C  0.13109469  0.59644048  0.66390119    -0.08500
C1047       C  0.13525003  0.57245281  0.69722373     0.61900
H1048       H  0.17314840  0.62049457  0.68086184     0.12500
H1049       H  0.08138992  0.62065057  0.58941177     0.12600
C1050       C  0.12009701  0.66945973  0.57403199     0.62100
F1051       F  0.15946889  0.57966514  0.72328035    -0.23100
F1052       F  0.14191678  0.54452067  0.68050624    -0.20400
F1053       F  0.10821693  0.57024235  0.71992177    -0.20100
F1054       F  0.14675955  0.67091984  0.55050955    -0.20100
F1055       F  0.11536047  0.69735625  0.59185961    -0.20500
F1056       F  0.09495171  0.66377012  0.54880284    -0.23100
C1057       C  0.14788413  0.96623874  0.81235315    -0.06000
C1058       C  0.17415244  0.98457481  0.80488237     0.00000
C1059       C  0.16997641  0.01442251  0.78868678    -0.08600
C1060       C  0.13802946  0.51461820  0.78372244    -0.06000
C1061       C  0.11584501  0.00226887  0.77416277    -0.00100
C1062       C  0.11810545  0.97549203  0.79883996    -0.08500
C1063       C  0.08959086  0.95661615  0.81002727     0.61900
H1064       H  0.15104494  0.94411707  0.82683851     0.12500
H1065       H  0.13321009  0.53853630  0.77797783     0.12600
C1066       C  0.18870564  0.53132509  0.81328097     0.62100
F1067       F  0.09731315  0.93105295  0.83305397    -0.23100
F1068       F  0.07450681  0.94704785  0.77558515    -0.20400
F1069       F  0.06941070  0.97417167  0.83240494    -0.20100
F1070       F  0.20759558  0.04355003  0.75224669    -0.20100
F1071       F  0.21174470  0.52124999  0.83961693    -0.20500
F1072       F  0.17288475  0.55470123  0.83189053    -0.23100
C1073       C  0.37105917  0.49689669  0.70498130    -0.06000
C1074       C  0.36935835  0.98038606  0.73548977     0.00000
C1075       C  0.39802494  0.97056824  0.75215306    -0.08600
C1076       C  0.41499809  0.52788079  0.75046100    -0.06000
C1077       C  0.42014174  0.52461593  0.70892629    -0.00100
C1078       C  0.39720160  0.51018301  0.68510654    -0.08500
C1079       C  0.40033507  0.50908581  0.63951426     0.61900
H1080       H  0.35287624  0.48605445  0.68742792     0.12500
H1081       H  0.43198803  0.54073938  0.76765286     0.12600
C1082       C  0.40000335  0.94795830  0.78737077     0.62100
F1083       F  0.37514112  0.49449910  0.62187055    -0.23100
F1084       F  0.42718296  0.49364116  0.62924742    -0.20400
F1085       F  0.40189159  0.53852735  0.62388013    -0.20100
F1086       F  0.37597106  0.92681242  0.78571259    -0.20100
F1087       F  0.36609147  0.52288461  0.83333660    -0.20500
F1088       F  0.42786164  0.93208509  0.78648239    -0.23100
C1089       C  0.47050352  0.63007746  0.74403245    -0.06000
C1090       C  0.99793502  0.61459833  0.76499533     0.00000
C1091       C  0.00956341  0.62552630  0.80249979    -0.08600
C1092       C  0.49988628  0.65425203  0.81157600    -0.06000
C1093       C  0.47552806  0.67062393  0.79270783    -0.00100
C1094       C  0.45936050  0.65715812  0.76020122    -0.08500
C1095       C  0.42927549  0.67062107  0.74417073     0.61900
H1096       H  0.45842744  0.62029245  0.71845448     0.12500
H1097       H  0.00849635  0.66372780  0.84380933     0.12600
C1098       C  0.03348191  0.60772486  0.82700466     0.62100
F1099       F  0.41485828  0.65214933  0.71604164    -0.23100
F1100       F  0.43474934  0.69872735  0.72601855    -0.20400
F1101       F  0.40928183  0.67366543  0.77642321    -0.20100
F1102       F  0.06002673  0.60331697  0.80411648    -0.20100
F1103       F  0.02101599  0.57973877  0.83848263    -0.20500
F1104       F  0.04204506  0.62280795  0.86184929    -0.23100
C1105       C  0.04695504  0.90302557  0.71657638    -0.06000
C1106       C  0.02297943  0.92179475  0.70169788     0.00000
C1107       C  0.99291059  0.90895612  0.69551268    -0.08600
C1108       C  0.48305404  0.88091554  0.71454624    -0.06000
C1109       C  0.00927450  0.86303935  0.73272472    -0.00100
C1110       C  0.04059608  0.87370671  0.73248802    -0.08500
C1111       C  0.06709124  0.85436615  0.74949342     0.61900
H1112       H  0.07039805  0.91223805  0.71820328     0.12500
H1113       H  0.45948121  0.87190685  0.71265316     0.12600
C1114       C  0.46392833  0.92661169  0.67602948     0.62100
F1115       F  0.09601040  0.86699334  0.74061179    -0.23100
F1116       F  0.06592785  0.82560259  0.73289905    -0.20400
F1117       F  0.06458893  0.85175854  0.79110331    -0.20100
F1118       F  0.45682754  0.90978626  0.64214524    -0.20100
F1119       F  0.97622195  0.95281961  0.65585132    -0.20500
F1120       F  0.43748335  0.92823861  0.69964163    -0.23100
Fe1121     Fe  0.56567475  0.00876119  0.66488555     1.65800
Fe1122     Fe  0.50610942  0.05925883  0.65990726     1.73200
Fe1123     Fe  0.51709889  0.01790655  0.74497386     1.54400
O1124       O  0.51604983  0.47311668  0.72685643    -0.81900
O1125       O  0.49736799  0.08396857  0.71218908    -0.80200
O1126       O  0.53707910  0.46251304  0.66687320    -0.84400
O1127       O  0.59325584  0.01316983  0.71560055    -0.79200
O1128       O  0.97196842  0.02397892  0.72685334    -0.81000
O1129       O  0.54626950  0.08547456  0.65063240    -0.83700
C1130       C  0.58803625  0.00834187  0.75288103     0.97000
C1131       C  0.52183987  0.45462787  0.69865883     1.04500
O1132       O  0.53029852  0.02882687  0.68986237    -1.12700
O1133       O  0.01211000  0.04041083  0.59748645    -0.75200
O1134       O  0.54327467  0.00106227  0.61046614    -0.78600
O1135       O  0.56079057  0.00723339  0.76734634    -0.79300
C1136       C  0.52415914  0.01664138  0.58952749     0.95900
O1137       O  0.58384906  0.05060124  0.64493152    -0.77300
O1138       O  0.96662641  0.03305836  0.66114133    -0.82500
C1139       C  0.50694976  0.08452537  0.74883005     0.98500
C1140       C  0.95626555  0.02224067  0.69455012     1.04500
O1141       O  0.52212790  0.06238170  0.76450111    -0.78100
C1142       C  0.57474641  0.07828851  0.64404823     1.02800
Fe1143     Fe  0.68772816  0.24382699  0.65441534     1.65800
Fe1144     Fe  0.74007122  0.18548164  0.65011602     1.73200
Fe1145     Fe  0.73328974  0.22644651  0.73654954     1.54400
O1146       O  0.73377320  0.27296305  0.72577898    -0.81900
O1147       O  0.74367799  0.15658626  0.69870817    -0.80200
O1148       O  0.71120592  0.28414291  0.66642544    -0.84400
O1149       O  0.66241768  0.24831355  0.70714385    -0.79200
O1150       O  0.77885257  0.22647312  0.71968837    -0.81000
O1151       O  0.69640160  0.16655612  0.63845219    -0.83700
C1152       C  0.66498746  0.24124001  0.74437503     0.97000
C1153       C  0.72697441  0.29166763  0.69738353     1.04500
O1154       O  0.72032807  0.21850116  0.68043239    -1.12700
O1155       O  0.74173361  0.20815986  0.59576264    -0.75200
O1156       O  0.70808653  0.24580108  0.59758209    -0.78600
O1157       O  0.68873457  0.22809623  0.75918345    -0.79300
C1158       C  0.72922651  0.23119806  0.57962206     0.95900
O1159       O  0.66193452  0.20459049  0.64148927    -0.77300
O1160       O  0.78497470  0.20211172  0.66120676    -0.82500
C1161       C  0.74343230  0.15694819  0.73691997     0.98500
C1162       C  0.79564128  0.21691393  0.69111601     1.04500
O1163       O  0.73643810  0.18087816  0.75592623    -0.78100
C1164       C  0.66831744  0.17632967  0.63787040     1.02800
Fe1165     Fe  0.76058445  0.31924895  0.34811521     1.65800
Fe1166     Fe  0.81257048  0.26056098  0.34665273     1.73200
Fe1167     Fe  0.77258657  0.27979552  0.26143791     1.54400
O1168       O  0.72623995  0.27520899  0.27523515    -0.81900
O1169       O  0.83982511  0.25602218  0.29520473    -0.80200
O1170       O  0.71688825  0.30265009  0.33059500    -0.84400
O1171       O  0.76157925  0.35028272  0.30123377    -0.79200
O1172       O  0.77604092  0.23336183  0.26911018    -0.81000
O1173       O  0.83826721  0.29901420  0.36186998    -0.83700
C1174       C  0.76246250  0.34962878  0.26312641     0.97000
C1175       C  0.70814912  0.28465727  0.30271029     1.04500
O1176       O  0.78194170  0.28682982  0.31876711    -1.12700
O1177       O  0.79032714  0.25925468  0.40232066    -0.75200
O1178       O  0.75446085  0.29491558  0.40065401    -0.78600
O1179       O  0.76653355  0.32514873  0.24405989    -0.79300
C1180       C  0.76768154  0.27298523  0.41846286     0.95900
O1181       O  0.80359780  0.33672073  0.36707922    -0.77300
O1182       O  0.78878391  0.22070500  0.33248024    -0.82500
C1183       C  0.84080779  0.26633510  0.25901494     0.98500
C1184       C  0.77950369  0.21361827  0.29731836     1.04500
O1185       O  0.81893798  0.28231657  0.24376537    -0.78100
C1186       C  0.83168825  0.32677510  0.36882708     1.02800
Fe1187     Fe  0.99816388  0.43443094  0.34836017     1.65800
Fe1188     Fe  0.94251346  0.48899895  0.35142415     1.73200
Fe1189     Fe  0.98135638  0.47628265  0.26321520     1.54400
O1190       O  0.52924720  0.46648390  0.26551074    -0.81900
O1191       O  0.91077168  0.48814282  0.30548743    -0.80200
O1192       O  0.53765252  0.46001954  0.33154444    -0.84400
O1193       O  0.50431931  0.40933690  0.29108913    -0.79200
O1194       O  0.98511157  0.02292776  0.27141009    -0.81000
O1195       O  0.92311538  0.44814806  0.37277997    -0.83700
C1196       C  0.99372755  0.40902857  0.26057691     0.97000
C1197       C  0.54598082  0.47012645  0.29690388     1.04500
O1198       O  0.97381904  0.46662997  0.32088813    -1.12700
O1199       O  0.96995899  0.99593471  0.40318760    -0.75200
O1200       O  0.99879700  0.45362542  0.40559423    -0.78600
O1201       O  0.97947994  0.43158864  0.24510838    -0.79300
C1202       C  0.98814502  0.47759269  0.42121055     0.95900
O1203       O  0.95701830  0.41070392  0.36162531    -0.77300
O1204       O  0.96402175  0.03354048  0.33151980    -0.82500
C1205       C  0.91050433  0.48732195  0.26723766     0.98500
C1206       C  0.97778164  0.04158861  0.29879215     1.04500
O1207       O  0.93470934  0.48129233  0.24692336    -0.78100
C1208       C  0.92969287  0.41985354  0.37116916     1.02800
Fe1209     Fe  0.93761585  0.25470184  0.84408970     1.65800
Fe1210     Fe  0.49765882  0.31079951  0.85130185     1.73200
Fe1211     Fe  0.98183910  0.26481077  0.75873335     1.54400
O1212       O  0.97844052  0.21863347  0.77207024    -0.81900
O1213       O  0.99491493  0.33751303  0.79077914    -0.80200
O1214       O  0.95718351  0.21162529  0.83313626    -0.84400
O1215       O  0.91064708  0.25130838  0.79340106    -0.79200
O1216       O  0.53171896  0.26425218  0.78256996    -0.81000
O1217       O  0.95180662  0.33147817  0.85725430    -0.83700
C1218       C  0.91169982  0.25570895  0.75542877     0.97000
C1219       C  0.97028323  0.20140549  0.80148608     1.04500
O1220       O  0.97106689  0.27662538  0.81472655    -1.12700
O1221       O  0.50125768  0.28964250  0.90763775    -0.75200
O1222       O  0.95942507  0.25383316  0.89959901    -0.78600
O1223       O  0.93610868  0.26543546  0.73772081    -0.79300
C1224       C  0.98237614  0.26707744  0.91573646     0.95900
O1225       O  0.91477659  0.29571794  0.85682666    -0.77300
O1226       O  0.54080350  0.29203524  0.83777476    -0.82500
C1227       C  0.99348186  0.33437086  0.75282292     0.98500
C1228       C  0.54971512  0.27431616  0.80994989     1.04500
O1229       O  0.98789283  0.30899768  0.73641888    -0.78100
C1230       C  0.92321489  0.32355251  0.86081947     1.02800
Fe1231     Fe  0.80951219  0.48560705  0.85154685     1.65800
Fe1232     Fe  0.75292733  0.43097834  0.84915568     1.73200
Fe1233     Fe  0.76697081  0.47678769  0.76538444     1.54400
O1234       O  0.77599500  0.02259536  0.77046457    -0.81900
O1235       O  0.75081495  0.40438502  0.79841696    -0.80200
O1236       O  0.79842867  0.03100469  0.83019994    -0.84400
O1237       O  0.83613646  0.49103649  0.80106804    -0.79200
O1238       O  0.72064871  0.48014999  0.77963967    -0.81000
O1239       O  0.79432740  0.40845146  0.86451941    -0.83700
C1240       C  0.83670115  0.48509962  0.76382707     0.97000
C1241       C  0.78527770  0.04044131  0.79779476     1.04500
O1242       O  0.77640585  0.46428444  0.82197350    -1.12700
O1243       O  0.74997760  0.45162498  0.90499419    -0.75200
O1244       O  0.78812632  0.48529904  0.90685988    -0.78600
O1245       O  0.81281441  0.47554309  0.74517585    -0.79300
C1246       C  0.76516954  0.47197197  0.92330714     0.95900
O1247       O  0.83196153  0.44374430  0.86365543    -0.77300
O1248       O  0.71041446  0.45120848  0.83467244    -0.82500
C1249       C  0.75390732  0.40804529  0.76056850     0.98500
C1250       C  0.70225752  0.47001311  0.80680398     1.04500
O1251       O  0.76087647  0.43335152  0.74408429    -0.78100
C1252       C  0.82310959  0.41582325  0.86705766     1.02800
Fe1253     Fe  0.50923149  0.18781311  0.15887205     1.65800
Fe1254     Fe  0.56810297  0.24013282  0.16263351     1.73200
Fe1255     Fe  0.52120961  0.22718220  0.24546561     1.54400
O1256       O  0.97680216  0.23394650  0.22609203    -0.81900
O1257       O  0.59560487  0.24092402  0.21350070    -0.80200
O1258       O  0.96654168  0.21019047  0.16806548    -0.84400
O1259       O  0.50337945  0.16015571  0.20928072    -0.79200
O1260       O  0.51874813  0.27261076  0.23127642    -0.81000
O1261       O  0.58909796  0.19834164  0.14690574    -0.83700
C1262       C  0.50986829  0.15938143  0.24681945     0.97000
C1263       C  0.95811367  0.22604552  0.19824962     1.04500
O1264       O  0.53319023  0.21830985  0.18907197    -1.12700
O1265       O  0.54705262  0.24519372  0.10683582    -0.75200
O1266       O  0.50996719  0.21020186  0.10370421    -0.78600
O1267       O  0.52194159  0.18198511  0.26456082    -0.79300
C1268       C  0.52511968  0.23219883  0.08822689     0.95900
O1269       O  0.54996233  0.16441425  0.14584539    -0.77300
O1270       O  0.54876454  0.28247516  0.17716568    -0.82500
C1271       C  0.59171307  0.23940634  0.25138444     0.98500
C1272       C  0.52972245  0.29083550  0.20455947     1.04500
O1273       O  0.56585425  0.23280330  0.26768271    -0.78100
C1274       C  0.57890280  0.17094922  0.14282233     1.02800
Fe1275     Fe  0.74579220  0.06540093  0.14738061     1.65800
Fe1276     Fe  0.69138356  0.00921244  0.15200074     1.73200
Fe1277     Fe  0.73086880  0.02818710  0.23672122     1.54400
O1278       O  0.77717649  0.02314871  0.22600368    -0.81900
O1279       O  0.66465360  0.00325645  0.20410996    -0.80200
O1280       O  0.78912599  0.04946589  0.16925461    -0.84400
O1281       O  0.74367495  0.09703668  0.19140815    -0.79200
O1282       O  0.71884929  0.48374649  0.23395202    -0.81000
O1283       O  0.66648564  0.04863965  0.13774987    -0.83700
C1284       C  0.74460669  0.09754990  0.22940214     0.97000
C1285       C  0.79668610  0.03335838  0.20039791     1.04500
O1286       O  0.72292041  0.03445768  0.17862708    -1.12700
O1287       O  0.70707116  0.51126042  0.09730378    -0.75200
O1288       O  0.75287698  0.03917025  0.09736929    -0.78600
O1289       O  0.73855315  0.07396061  0.25087197    -0.79300
C1290       C  0.73693945  0.01941899  0.07925688     0.95900
O1291       O  0.70347487  0.08389244  0.12576154    -0.77300
O1292       O  0.70812101  0.47342198  0.16938707    -0.82500
C1293       C  0.66328952  0.01465406  0.23916028     0.98500
C1294       C  0.71823533  0.46549807  0.20430797     1.04500
O1295       O  0.68451218  0.03202184  0.25250588    -0.78100
C1296       C  0.67470108  0.07604712  0.12864899     1.02800
C1297       C  0.63018929  0.15241050  0.11551249    -0.06000
C1298       C  0.60169014  0.14541560  0.13486499     0.00000
C1299       C  0.59621815  0.11443284  0.14712599    -0.11000
C1300       C  0.62007113  0.09270292  0.14198938    -0.06000
C1301       C  0.64938219  0.10004005  0.12516885    -0.00100
C1302       C  0.65383316  0.13031174  0.10966451    -0.08500
C1303       C  0.68309938  0.13964843  0.08671742     0.61900
H1304       H  0.63406334  0.17570318  0.10525129     0.12500
H1305       H  0.61618510  0.06957894  0.15276122     0.12600
C1306       C  0.56596077  0.10392921  0.16721833     0.62100
F1307       F  0.67947142  0.16742367  0.06670737    -0.23100
F1308       F  0.69005256  0.11810306  0.05797409    -0.20400
F1309       F  0.70777330  0.14238348  0.11337593    -0.20100
F1310       F  0.54134162  0.10720310  0.14033790    -0.20100
F1311       F  0.56058985  0.12088383  0.20140235    -0.20500
F1312       F  0.56682325  0.07351738  0.17920935    -0.23100
C1313       C  0.77966622  0.49573723  0.98841023    -0.06000
C1314       C  0.75648750  0.48118737  0.96528302     0.00000
C1315       C  0.73134299  0.99235775  0.97032521    -0.08600
C1316       C  0.72405040  0.00182615  0.00981886    -0.06000
C1317       C  0.74723326  0.00921278  0.03823573    -0.00100
C1318       C  0.77375474  0.50781205  0.02685899    -0.08500
C1319       C  0.80078648  0.52234383  0.04976201     0.61900
H1320       H  0.80290293  0.49778908  0.97583434     0.12500
H1321       H  0.69984037  0.00397565  0.01868060     0.12600
C1322       C  0.70492258  0.98694923  0.94041452     0.62100
F1323       F  0.82892881  0.51938799  0.02966804    -0.23100
F1324       F  0.80407242  0.50834909  0.08737959    -0.20400
F1325       F  0.79547131  0.55321291  0.05423102    -0.20100
F1326       F  0.70225728  0.95613904  0.93272787    -0.20100
F1327       F  0.71070115  0.00280862  0.90462676    -0.20500
F1328       F  0.67650489  0.99677982  0.95511138    -0.23100
C1329       C  0.50253074  0.28073017  0.99576784    -0.06000
C1330       C  0.99212128  0.25823999  0.95781283     0.00000
C1331       C  0.98683178  0.22871585  0.97517378    -0.08600
C1332       C  0.99765281  0.22258012  0.01470220    -0.06000
C1333       C  0.51701925  0.24242697  0.04654435    -0.00100
C1334       C  0.51155444  0.27343827  0.03585454    -0.08500
C1335       C  0.51401848  0.29854618  0.06689185     0.61900
H1336       H  0.49808829  0.30423719  0.98700278     0.12500
H1337       H  0.99394982  0.20014660  0.02807558     0.12600
C1338       C  0.97018998  0.20337059  0.95256631     0.62100
F1339       F  0.50406296  0.32638260  0.05134651    -0.23100
F1340       F  0.54472407  0.30185067  0.07906040    -0.20400
F1341       F  0.49570238  0.29131582  0.10018238    -0.20100
F1342       F  0.98446722  0.19886657  0.91563954    -0.20100
F1343       F  0.93918741  0.21100497  0.94664806    -0.20500
F1344       F  0.97083902  0.17586650  0.97379090    -0.23100
C1345       C  0.86665153  0.33823577  0.86796405    -0.06000
C1346       C  0.89824791  0.34752662  0.86834335     0.00000
C1347       C  0.90446586  0.37914543  0.87481685    -0.08600
C1348       C  0.87924164  0.39998970  0.87602885    -0.06000
C1349       C  0.84774143  0.39100442  0.87205215    -0.00100
C1350       C  0.84140344  0.35896632  0.87061601    -0.08500
C1351       C  0.80837086  0.34601963  0.87191816     0.61900
H1352       H  0.86161171  0.31420786  0.86463680     0.12500
H1353       H  0.88422643  0.42403273  0.87924103     0.12600
C1354       C  0.93738921  0.39148762  0.88051461     0.62100
F1355       F  0.80810774  0.31447379  0.87509689    -0.23100
F1356       F  0.79244228  0.35406008  0.83690663    -0.20400
F1357       F  0.79282731  0.35694973  0.90534921    -0.20100
F1358       F  0.95386485  0.38946820  0.84470627    -0.20100
F1359       F  0.95240249  0.37509266  0.91091185    -0.20500
F1360       F  0.93748769  0.42181016  0.89164973    -0.23100
C1361       C  0.01217832  0.08773625  0.30255078    -0.06000
C1362       C  0.98406918  0.07420946  0.28970185     0.00000
C1363       C  0.46279418  0.08912036  0.27173309    -0.08600
C1364       C  0.47310332  0.11702354  0.25589379    -0.06000
C1365       C  0.50041691  0.13132658  0.26967030    -0.00100
C1366       C  0.02167843  0.11686848  0.28774060    -0.08500
C1367       C  0.05255106  0.13051803  0.30092932     0.61900
H1368       H  0.02712339  0.07483436  0.32297090     0.12500
H1369       H  0.45997517  0.12758749  0.23151877     0.12600
C1370       C  0.43215186  0.07572206  0.25705787     0.62100
F1371       F  0.06849017  0.11125779  0.32731314    -0.23100
F1372       F  0.04736763  0.15771404  0.32039665    -0.20400
F1373       F  0.07119491  0.13592665  0.26741037    -0.20100
F1374       F  0.41393116  0.06805468  0.29016642    -0.20100
F1375       F  0.43767406  0.05007175  0.23446799    -0.20500
F1376       F  0.41549425  0.09620174  0.23315581    -0.23100
C1377       C  0.52766546  0.37718542  0.21562688    -0.06000
C1378       C  0.49789247  0.38038181  0.23274847     0.00000
C1379       C  0.47728326  0.35528714  0.23422551    -0.08600
C1380       C  0.48790764  0.32700423  0.22066022    -0.06000
C1381       C  0.51873204  0.32288743  0.20697903    -0.00100
C1382       C  0.53857417  0.34869298  0.20245019    -0.08500
C1383       C  0.57153414  0.34601864  0.18618843     0.61900
H1384       H  0.54302164  0.39689618  0.21503582     0.12500
H1385       H  0.47258749  0.30730772  0.22272586     0.12600
C1386       C  0.95035780  0.35646845  0.26414790     0.62100
F1387       F  0.58681648  0.37391783  0.18500734    -0.23100
F1388       F  0.57058138  0.33509095  0.14718346    -0.20400
F1389       F  0.58866988  0.32631297  0.21056246    -0.20100
F1390       F  0.44616430  0.36964600  0.29035424    -0.20100
F1391       F  0.93578912  0.32827238  0.26552560    -0.20500
F1392       F  0.93017506  0.37744402  0.24663885    -0.23100
C1393       C  0.63154248  0.49280218  0.29143948    -0.06000
C1394       C  0.62950431  0.51652757  0.26249236     0.00000
C1395       C  0.61465042  0.02562636  0.28036206    -0.08600
C1396       C  0.57338129  0.51350565  0.26582953    -0.06000
C1397       C  0.57523463  0.48752877  0.29129295    -0.00100
C1398       C  0.60466024  0.47747575  0.30560741    -0.08500
C1399       C  0.60784332  0.44939708  0.33274241     0.61900
H1400       H  0.65449390  0.48448799  0.29982991     0.12500
H1401       H  0.56848404  0.02885601  0.30641405     0.12600
C1402       C  0.61934684  0.05985686  0.27635956     0.62100
F1403       F  0.63880226  0.44246367  0.34064765    -0.23100
F1404       F  0.59429858  0.42452087  0.31422159    -0.20400
F1405       F  0.59321135  0.45432413  0.36929923    -0.20100
F1406       F  0.62308815  0.06813108  0.23609751    -0.20100
F1407       F  0.64569154  0.06831405  0.29778558    -0.20500
F1408       F  0.59420638  0.07577646  0.29146630    -0.23100
C1409       C  0.84138211  0.50083808  0.19445868    -0.06000
C1410       C  0.82948762  0.02679027  0.21043416     0.00000
C1411       C  0.84188696  0.03795338  0.24698178    -0.08600
C1412       C  0.86834290  0.02407565  0.26336396    -0.06000
C1413       C  0.88454478  0.00080256  0.24359214    -0.00100
C1414       C  0.86985207  0.48844422  0.20897176    -0.08500
C1415       C  0.88669372  0.46467443  0.18450800     0.61900
H1416       H  0.83111186  0.49280728  0.16658460     0.12500
H1417       H  0.87637254  0.03151133  0.29263452     0.12600
C1418       C  0.82693367  0.06423501  0.26936404     0.62100
F1419       F  0.86980266  0.45655583  0.15051744    -0.23100
F1420       F  0.89136019  0.43866997  0.20800184    -0.20400
F1421       F  0.91518718  0.47613235  0.17169207    -0.20100
F1422       F  0.82188073  0.08830767  0.24276755    -0.20100
F1423       F  0.84580837  0.07478711  0.30026674    -0.20500
F1424       F  0.79886510  0.05511042  0.28623707    -0.23100
C1425       C  0.84950587  0.38015477  0.38053858    -0.06000
C1426       C  0.85767460  0.34926156  0.37705085     0.00000
C1427       C  0.89001324  0.34163258  0.37922019    -0.08600
C1428       C  0.91242514  0.36541596  0.37953704    -0.06000
C1429       C  0.90416693  0.39650696  0.37852016    -0.00100
C1430       C  0.87179108  0.40389492  0.38154706    -0.08500
C1431       C  0.85994168  0.43646045  0.38505595     0.61900
H1432       H  0.82501362  0.38591136  0.38116526     0.12500
H1433       H  0.93696187  0.35968443  0.37939897     0.12600
C1434       C  0.90144945  0.30881851  0.38131101     0.62100
F1435       F  0.82799718  0.43757634  0.39122860    -0.23100
F1436       F  0.86622726  0.45274031  0.34979950    -0.20400
F1437       F  0.87401826  0.45035925  0.41772350    -0.20100
F1438       F  0.89618900  0.29472565  0.34474551    -0.20100
F1439       F  0.88611565  0.29308615  0.41207196    -0.20500
F1440       F  0.93313711  0.30714128  0.38944643    -0.23100
C1441       C  0.73001914  0.37919373  0.21447028    -0.06000
C1442       C  0.75587135  0.37846378  0.24082040     0.00000
C1443       C  0.77147549  0.40599811  0.25012486    -0.08600
C1444       C  0.75911121  0.43359281  0.23530515    -0.06000
C1445       C  0.73161782  0.43469483  0.21195691    -0.00100
C1446       C  0.71738208  0.40702569  0.19989920    -0.08500
C1447       C  0.68810385  0.40685094  0.17396489     0.61900
H1448       H  0.71850665  0.35783230  0.20761590     0.12500
H1449       H  0.77027649  0.45488435  0.24338775     0.12600
C1450       C  0.80065685  0.40645509  0.27637425     0.62100
F1451       F  0.67729020  0.37751029  0.16749373    -0.23100
F1452       F  0.69434464  0.42018651  0.13661920    -0.20400
F1453       F  0.66470784  0.42292401  0.19287423    -0.20100
F1454       F  0.82161343  0.38484865  0.26321621    -0.20100
F1455       F  0.79285199  0.40021870  0.31620870    -0.20500
F1456       F  0.81542725  0.43462644  0.27483217    -0.23100
C1457       C  0.74693768  0.13255177  0.28888814    -0.06000
C1458       C  0.75502494  0.12661834  0.24836351     0.00000
C1459       C  0.77477711  0.14792337  0.22719643    -0.08600
C1460       C  0.78427945  0.17429913  0.24694898    -0.06000
C1461       C  0.77397548  0.18151289  0.28570288    -0.00100
C1462       C  0.75589843  0.15998183  0.30794258    -0.08500
C1463       C  0.74572380  0.16619083  0.35093617     0.61900
H1464       H  0.73281656  0.11591973  0.30518701     0.12500
H1465       H  0.79889447  0.19080385  0.23112623     0.12600
C1466       C  0.78550700  0.14433518  0.18339615     0.62100
F1467       F  0.72752688  0.14270571  0.36673059    -0.23100
F1468       F  0.72847549  0.19277171  0.35185108    -0.20400
F1469       F  0.77176848  0.16925414  0.37539638    -0.20100
F1470       F  0.76016048  0.14699221  0.15767858    -0.20100
F1471       F  0.79973027  0.11644955  0.17825649    -0.20500
F1472       F  0.80690451  0.16653124  0.17162073    -0.23100
C1473       C  0.87450340  0.22552645  0.23418108    -0.06000
C1474       C  0.86775163  0.25684145  0.23408090     0.00000
C1475       C  0.88836354  0.27753174  0.21441714    -0.08600
C1476       C  0.91722620  0.26640797  0.20003579    -0.06000
C1477       C  0.92501300  0.23522862  0.20326373    -0.00100
C1478       C  0.90268692  0.21432366  0.21879417    -0.08500
C1479       C  0.90979007  0.18058342  0.22229640     0.61900
H1480       H  0.85804392  0.20992319  0.24847725     0.12500
H1481       H  0.93439376  0.28210523  0.18753509     0.12600
C1482       C  0.88014673  0.31104275  0.20980527     0.62100
F1483       F  0.93407750  0.17631683  0.24936829    -0.23100
F1484       F  0.91814432  0.16962302  0.18483730    -0.20400
F1485       F  0.88432303  0.16383370  0.23597754    -0.20100
F1486       F  0.87480067  0.32345555  0.24739555    -0.20100
F1487       F  0.85343041  0.31400277  0.18651159    -0.20500
F1488       F  0.90374685  0.32755381  0.19092297    -0.23100
C1489       C  0.67212988  0.24121988  0.29609860    -0.06000
C1490       C  0.67583444  0.27284040  0.30144486     0.00000
C1491       C  0.64947625  0.29211016  0.29910997    -0.08600
C1492       C  0.62089602  0.27947601  0.28630444    -0.06000
C1493       C  0.61826102  0.24845401  0.27673870    -0.00100
C1494       C  0.64343269  0.22861592  0.28417601    -0.08500
C1495       C  0.63973466  0.19449545  0.27893616     0.61900
H1496       H  0.69239018  0.22664509  0.29924533     0.12500
H1497       H  0.60090556  0.29409364  0.28106721     0.12600
C1498       C  0.65195973  0.32591370  0.30785293     0.62100
F1499       F  0.66658418  0.17885837  0.28976983    -0.23100
F1500       F  0.63281769  0.18811522  0.23903580    -0.20400
F1501       F  0.61563263  0.18402258  0.30332931    -0.20100
F1502       F  0.67345812  0.33964019  0.28212492    -0.20100
F1503       F  0.66142507  0.32971383  0.34752409    -0.20500
F1504       F  0.62364152  0.34061060  0.30269204    -0.23100
C1505       C  0.77735076  0.24539766  0.48330697    -0.06000
C1506       C  0.75681356  0.26322427  0.45976490     0.00000
C1507       C  0.72720493  0.27103199  0.47642587    -0.08600
C1508       C  0.71925391  0.25957243  0.51517675    -0.06000
C1509       C  0.73973211  0.24148426  0.53845662    -0.00100
C1510       C  0.76981688  0.23484667  0.52250867    -0.08500
C1511       C  0.79467983  0.21765003  0.54663356     0.61900
H1512       H  0.79996527  0.23999871  0.47082955     0.12500
H1513       H  0.69665812  0.26483250  0.52783022     0.12600
C1514       C  0.70370859  0.29125140  0.45416032     0.62100
F1515       F  0.82325788  0.21774070  0.52709568    -0.23100
F1516       F  0.78573078  0.18752840  0.55225991    -0.20400
F1517       F  0.79908072  0.23126495  0.58370215    -0.20100
F1518       F  0.69633165  0.27886445  0.41708139    -0.20100
F1519       F  0.71604426  0.32024343  0.44863818    -0.20500
F1520       F  0.67612861  0.29422895  0.47552010    -0.23100
C1521       C  0.61915784  0.22660882  0.78515973    -0.06000
C1522       C  0.63928210  0.24955582  0.77127145     0.00000
C1523       C  0.63314355  0.28042563  0.78048494    -0.08600
C1524       C  0.60475980  0.28766093  0.79916212    -0.06000
C1525       C  0.58260026  0.26496864  0.80770239    -0.00100
C1526       C  0.59086917  0.23386407  0.80377914    -0.08500
C1527       C  0.57041943  0.20766997  0.81792213     0.61900
H1528       H  0.62480617  0.20293231  0.77967479     0.12500
H1529       H  0.59851826  0.31126391  0.80368074     0.12600
C1530       C  0.65578439  0.30564006  0.76867740     0.62100
F1531       F  0.58755549  0.18859129  0.84320490    -0.23100
F1532       F  0.56045048  0.19142111  0.78473818    -0.20400
F1533       F  0.54474641  0.21741576  0.83925188    -0.20100
F1534       F  0.65741442  0.30780805  0.72703392    -0.20100
F1535       F  0.68505183  0.29915568  0.78430823    -0.20500
F1536       F  0.64659956  0.33369027  0.78309710    -0.23100
C1537       C  0.84506417  0.24566392  0.67829242    -0.06000
C1538       C  0.82922755  0.22121821  0.69729840     0.00000
C1539       C  0.84244150  0.20677420  0.73151954    -0.08600
C1540       C  0.86810316  0.22016124  0.74974045    -0.06000
C1541       C  0.88399835  0.24513166  0.73225300    -0.00100
C1542       C  0.87320893  0.25739130  0.69469612    -0.08500
C1543       C  0.89009325  0.28347023  0.67339267     0.61900
H1544       H  0.83455451  0.25626977  0.65180989     0.12500
H1545       H  0.87542332  0.21120823  0.77877239     0.12600
C1546       C  0.82838683  0.17791947  0.74993139     0.62100
F1547       F  0.87391549  0.29375514  0.63953183    -0.23100
F1548       F  0.91917208  0.27381139  0.66094417    -0.20400
F1549       F  0.89358020  0.30764672  0.69943954    -0.20100
F1550       F  0.82213565  0.15769797  0.71933579    -0.20100
F1551       F  0.80127379  0.18462500  0.77035007    -0.20500
F1552       F  0.84840141  0.16369515  0.77706305    -0.23100
C1553       C  0.77591327  0.11089563  0.73500685    -0.06000
C1554       C  0.75545993  0.12874598  0.75800111     0.00000
C1555       C  0.74960668  0.11966233  0.79889682    -0.08600
C1556       C  0.76177367  0.09133634  0.81325409    -0.06000
C1557       C  0.78098275  0.07334887  0.78880158    -0.00100
C1558       C  0.79034704  0.08484504  0.75061583    -0.08500
C1559       C  0.81440567  0.06902995  0.72467264     0.61900
H1560       H  0.78153021  0.11766883  0.70418695     0.12500
H1561       H  0.75536734  0.08247525  0.84287998     0.12600
C1562       C  0.73011131  0.13897443  0.82674898     0.62100
F1563       F  0.83113915  0.09017744  0.70179465    -0.23100
F1564       F  0.79949212  0.04919503  0.69880870    -0.20400
F1565       F  0.83563827  0.05312202  0.74843939    -0.20100
F1566       F  0.72557119  0.12480606  0.86405557    -0.20100
F1567       F  0.70115070  0.14435019  0.80951594    -0.20500
F1568       F  0.74514378  0.16645883  0.83324603    -0.23100
C1569       C  0.71433107  0.34671186  0.69966158    -0.06000
C1570       C  0.73692180  0.32370777  0.70255568     0.00000
C1571       C  0.76736365  0.33107537  0.71636735    -0.08600
C1572       C  0.77270420  0.35982282  0.73311628    -0.06000
C1573       C  0.74885532  0.38138688  0.73502288    -0.00100
C1574       C  0.71968645  0.37558390  0.71638795    -0.08500
C1575       C  0.69389242  0.39916752  0.71652444     0.61900
H1576       H  0.69176988  0.34128975  0.68685585     0.12500
H1577       H  0.79515338  0.36509560  0.74657589     0.12600
C1578       C  0.79415294  0.30878245  0.71336146     0.62100
F1579       F  0.66728688  0.38907108  0.69686410    -0.23100
F1580       F  0.70404777  0.42564076  0.69728323    -0.20400
F1581       F  0.68602892  0.40555869  0.75598549    -0.20100
F1582       F  0.79298184  0.29451811  0.67635076    -0.20100
F1583       F  0.79228979  0.28721489  0.74422832    -0.20500
F1584       F  0.82273343  0.32348736  0.71621181    -0.23100
C1585       C  0.51280059  0.47707479  0.52663549    -0.06000
C1586       C  0.51681636  0.00698808  0.54751792     0.00000
C1587       C  0.51458939  0.02802328  0.51448647    -0.08600
C1588       C  0.00787233  0.01812043  0.46963056    -0.06000
C1589       C  0.99780180  0.48680750  0.46281771    -0.00100
C1590       C  0.00444833  0.46564606  0.49474336    -0.08500
C1591       C  0.00191978  0.43136666  0.48916143     0.61900
H1592       H  0.52031515  0.46128252  0.55021099     0.12500
H1593       H  0.00746511  0.03376457  0.44390380     0.12600
C1594       C  0.52200469  0.06171692  0.51924487     0.62100
F1595       F  0.51591059  0.41577936  0.51522659    -0.23100
F1596       F  0.53236181  0.42695899  0.45259786    -0.20400
F1597       F  0.97284555  0.42413127  0.47356371    -0.20100
F1598       F  0.55031623  0.06516549  0.53897881    -0.20100
F1599       F  0.00512131  0.07727378  0.53455221    -0.20500
F1600       F  0.03019682  0.07642465  0.47522561    -0.23100
C1601       C  0.65021818  0.12386516  0.62068306    -0.06000
C1602       C  0.64236341  0.15309173  0.63446452     0.00000
C1603       C  0.61127321  0.15784867  0.64833723    -0.08600
C1604       C  0.58999886  0.13313527  0.64867845    -0.06000
C1605       C  0.59841391  0.10347101  0.63724791    -0.00100
C1606       C  0.62926886  0.09888635  0.62229319    -0.08500
C1607       C  0.64089084  0.06792092  0.60866260     0.61900
H1608       H  0.67372173  0.12032397  0.60985130     0.12500
H1609       H  0.56661045  0.13666809  0.65988555     0.12600
C1610       C  0.60048926  0.18822239  0.66485553     0.62100
F1611       F  0.67016748  0.06979241  0.59104805    -0.23100
F1612       F  0.62064575  0.05601799  0.58024392    -0.20400
F1613       F  0.64318199  0.04818354  0.64164621    -0.20100
F1614       F  0.60228100  0.21058062  0.63491114    -0.20100
F1615       F  0.61897972  0.19612358  0.69740503    -0.20500
F1616       F  0.56988670  0.18712553  0.67826317    -0.23100
C1617       C  0.64678840  0.45738999  0.79787962    -0.06000
C1618       C  0.66960339  0.47987336  0.80344683     0.00000
C1619       C  0.66203095  0.51099393  0.79670614    -0.08600
C1620       C  0.63965419  0.02407021  0.77720833    -0.06000
C1621       C  0.61257367  0.49531787  0.76751378    -0.00100
C1622       C  0.61822568  0.46460226  0.77921531    -0.08500
C1623       C  0.59481398  0.43953660  0.77024716     0.61900
H1624       H  0.65253607  0.43386637  0.80485191     0.12500
H1625       H  0.63584852  0.04575403  0.76172370     0.12600
C1626       C  0.69448112  0.04137929  0.79080916     0.62100
F1627       F  0.60405113  0.41159974  0.78627558    -0.23100
F1628       F  0.59169281  0.43664418  0.72887248    -0.20400
F1629       F  0.56617135  0.44671560  0.78675023    -0.20100
F1630       F  0.70547070  0.54043005  0.77509634    -0.20100
F1631       F  0.71456229  0.03792085  0.82339684    -0.20500
F1632       F  0.68155842  0.07023164  0.79273993    -0.23100
C1633       C  0.86895018  0.00398392  0.69551980    -0.06000
C1634       C  0.86696723  0.49053033  0.74340574     0.00000
C1635       C  0.89455482  0.48664547  0.76623043    -0.08600
C1636       C  0.92461586  0.98309565  0.72880093    -0.06000
C1637       C  0.92563622  0.00640853  0.69894413    -0.00100
C1638       C  0.89746035  0.01566006  0.67994113    -0.08500
C1639       C  0.89734302  0.03901301  0.64562516     0.61900
H1640       H  0.84698075  0.01263453  0.68400709     0.12500
H1641       H  0.94620366  0.97505851  0.74240733     0.12600
C1642       C  0.89619726  0.46682487  0.80458674     0.62100
F1643       F  0.86744521  0.04456096  0.63135335    -0.23100
F1644       F  0.91496669  0.02840569  0.61380545    -0.20400
F1645       F  0.90982422  0.06626544  0.65882149    -0.20100
F1646       F  0.87678508  0.44171221  0.80091542    -0.20100
F1647       F  0.90082315  0.96192198  0.81402607    -0.20500
F1648       F  0.92600158  0.45594454  0.81145489    -0.23100
C1649       C  0.96691394  0.12387581  0.75394392    -0.06000
C1650       C  0.49769017  0.11148637  0.77319638     0.00000
C1651       C  0.51631370  0.12526160  0.80363407    -0.08600
C1652       C  0.00173317  0.15355312  0.81269119    -0.06000
C1653       C  0.97528408  0.16804997  0.79610970    -0.00100
C1654       C  0.95665729  0.15192708  0.76829913    -0.08500
C1655       C  0.92545293  0.16417985  0.75485207     0.61900
H1656       H  0.95299665  0.11219539  0.73152374     0.12500
H1657       H  0.52129881  0.16533726  0.84105257     0.12600
C1658       C  0.54632712  0.11064227  0.81851194     0.62100
F1659       F  0.90876771  0.14358674  0.73181990    -0.23100
F1660       F  0.92957857  0.19057797  0.73205209    -0.20400
F1661       F  0.90843165  0.17011004  0.78919312    -0.20100
F1662       F  0.56649101  0.10673444  0.78637608    -0.20100
F1663       F  0.53972311  0.08261041  0.83640302    -0.20500
F1664       F  0.56132637  0.12830258  0.84700845    -0.23100
C1665       C  0.53292159  0.39886651  0.69940665    -0.06000
C1666       C  0.51136358  0.42243794  0.70531903     0.00000
C1667       C  0.48194692  0.41520078  0.72320232    -0.08600
C1668       C  0.97745072  0.38569542  0.73184504    -0.06000
C1669       C  0.49956510  0.36290017  0.73643569    -0.00100
C1670       C  0.52780000  0.36923936  0.71558280    -0.08500
C1671       C  0.55323528  0.34540000  0.71313744     0.61900
H1672       H  0.55490896  0.40440651  0.68492382     0.12500
H1673       H  0.95561056  0.38086686  0.74724640     0.12600
C1674       C  0.96094786  0.44021327  0.72558094     0.62100
F1675       F  0.57875692  0.35585538  0.69121886    -0.23100
F1676       F  0.54172007  0.31961699  0.69460977    -0.20400
F1677       F  0.56326902  0.33772145  0.75173182    -0.20100
F1678       F  0.95934878  0.45867125  0.69129667    -0.20100
F1679       F  0.46297611  0.45811301  0.75872386    -0.20500
F1680       F  0.93143930  0.42826040  0.73266801    -0.23100
Fe1681     Fe  0.56050074  0.50358746  0.65340345     1.65800
Fe1682     Fe  0.50581456  0.56047052  0.64995655     1.73200
Fe1683     Fe  0.51813922  0.51940946  0.73709881     1.54400
O1684       O  0.51044543  0.97320252  0.72702184    -0.81900
O1685       O  0.50273925  0.58858656  0.69893833    -0.80200
O1686       O  0.54981233  0.96569466  0.68351220    -0.84400
O1687       O  0.58747604  0.49738606  0.70457163    -0.79200
O1688       O  0.97704029  0.51929495  0.73059295    -0.81000
O1689       O  0.54888369  0.58078909  0.63584533    -0.83700
C1690       C  0.58613360  0.50369975  0.74171703     0.97000
C1691       C  0.52671370  0.95601534  0.70454957     1.04500
O1692       O  0.52808853  0.52782299  0.68003482    -1.12700
O1693       O  0.00470739  0.53752287  0.60107380    -0.75200
O1694       O  0.54007154  0.50320828  0.59670153    -0.78600
O1695       O  0.56301117  0.51653568  0.75742725    -0.79300
C1696       C  0.51824948  0.51718341  0.57859544     0.95900
O1697       O  0.58511715  0.54423936  0.64047299    -0.77300
O1698       O  0.96412004  0.54051010  0.67155504    -0.82500
C1699       C  0.50732366  0.58797679  0.73686218     0.98500
C1700       C  0.95667401  0.52650626  0.70442727     1.04500
O1701       O  0.51762714  0.56447004  0.75508664    -0.78100
C1702       C  0.57751254  0.57232922  0.63563372     1.02800
Fe1703     Fe  0.68668500  0.74026225  0.65969222     1.65800
Fe1704     Fe  0.74239307  0.68481709  0.65685279     1.73200
Fe1705     Fe  0.72996012  0.72422871  0.74375340     1.54400
O1706       O  0.72906748  0.77086713  0.73370564    -0.81900
O1707       O  0.74457562  0.65484056  0.70510828    -0.80200
O1708       O  0.70910838  0.78145320  0.67252275    -0.84400
O1709       O  0.66012681  0.74459149  0.71100878    -0.79200
O1710       O  0.77597451  0.72607303  0.73054608    -0.81000
O1711       O  0.69984021  0.66433884  0.64050884    -0.83700
C1712       C  0.66157815  0.73686396  0.74799263     0.97000
C1713       C  0.72339425  0.78939357  0.70466101     1.04500
O1714       O  0.71972214  0.71631366  0.68676140    -1.12700
O1715       O  0.74569272  0.70922764  0.60329224    -0.75200
O1716       O  0.70709452  0.74224292  0.60312656    -0.78600
O1717       O  0.68487043  0.72371191  0.76365661    -0.79300
C1718       C  0.73004749  0.73002348  0.58595813     0.95900
O1719       O  0.66277386  0.69969576  0.64671198    -0.77300
O1720       O  0.78622883  0.70280713  0.67242994    -0.82500
C1721       C  0.74173140  0.65508018  0.74324140     0.98500
C1722       C  0.79472739  0.71745305  0.70367020     1.04500
O1723       O  0.73365485  0.67878962  0.76189040    -0.78100
C1724       C  0.67101150  0.67216181  0.64030358     1.02800
Fe1725     Fe  0.76151784  0.81612578  0.35490797     1.65800
Fe1726     Fe  0.81546128  0.75908311  0.35243318     1.73200
Fe1727     Fe  0.77539463  0.77870647  0.26709377     1.54400
O1728       O  0.72880390  0.77580106  0.27880823    -0.81900
O1729       O  0.84282334  0.75520577  0.30189232    -0.80200
O1730       O  0.71842559  0.79683480  0.33866796    -0.84400
O1731       O  0.75924585  0.84709447  0.30711034    -0.79200
O1732       O  0.77669465  0.73245266  0.27470328    -0.81000
O1733       O  0.84006790  0.79853962  0.36794233    -0.83700
C1734       C  0.76382739  0.84728934  0.26928100     0.97000
C1735       C  0.71031538  0.78168199  0.30756017     1.04500
O1736       O  0.78409491  0.78480624  0.32490561    -1.12700
O1737       O  0.79393996  0.75626768  0.40803753    -0.75200
O1738       O  0.75792348  0.79188169  0.40890811    -0.78600
O1739       O  0.77199727  0.82386928  0.25044258    -0.79300
C1740       C  0.77211069  0.76984129  0.42569097     0.95900
O1741       O  0.80455686  0.83579730  0.37138027    -0.77300
O1742       O  0.79251378  0.71882135  0.33686540    -0.82500
C1743       C  0.84341714  0.76467278  0.26551192     0.98500
C1744       C  0.78105019  0.71250851  0.30233672     1.04500
O1745       O  0.82145856  0.77996610  0.24973081    -0.78100
C1746       C  0.83299580  0.82652441  0.37315378     1.02800
Fe1747     Fe  0.99992057  0.93661681  0.34917634     1.65800
Fe1748     Fe  0.94478630  0.99166424  0.35028636     1.73200
Fe1749     Fe  0.98311687  0.97647926  0.26246708     1.54400
O1750       O  0.53052811  0.97957226  0.28044288    -0.81900
O1751       O  0.91425407  0.99335076  0.30273497    -0.80200
O1752       O  0.54199467  0.95484056  0.33859977    -0.84400
O1753       O  0.50094715  0.90690415  0.30575126    -0.79200
O1754       O  0.98470198  0.52197480  0.27430534    -0.81000
O1755       O  0.92356020  0.95057178  0.36937326    -0.83700
C1756       C  0.99722168  0.90903986  0.26275070     0.97000
C1757       C  0.54966050  0.97135680  0.30792076     1.04500
O1758       O  0.97564776  0.96823668  0.32054133    -1.12700
O1759       O  0.96923881  0.49455287  0.40223088    -0.75200
O1760       O  0.00018377  0.95552220  0.40609703    -0.78600
O1761       O  0.98276466  0.93103839  0.24604212    -0.79300
C1762       C  0.98901578  0.97901523  0.42199374     0.95900
O1763       O  0.95830021  0.91298958  0.36210705    -0.77300
O1764       O  0.95898917  0.53144839  0.33160848    -0.82500
C1765       C  0.91324848  0.98958604  0.26484107     0.98500
C1766       C  0.97479031  0.54004140  0.30085991     1.04500
O1767       O  0.93651314  0.97974492  0.24545894    -0.78100
C1768       C  0.93041119  0.92214075  0.36928495     1.02800
Fe1769     Fe  0.94248809  0.75679296  0.85023123     1.65800
Fe1770     Fe  0.49520915  0.81106245  0.84663602     1.73200
Fe1771     Fe  0.98287612  0.76834898  0.76244763     1.54400
O1772       O  0.97929937  0.72216456  0.77428727    -0.81900
O1773       O  0.00490061  0.83754148  0.79514279    -0.80200
O1774       O  0.96013779  0.71349892  0.83611722    -0.84400
O1775       O  0.91375785  0.75538815  0.80144562    -0.79200
O1776       O  0.52837904  0.76615476  0.77686338    -0.81000
O1777       O  0.95810203  0.83481613  0.85838849    -0.83700
C1778       C  0.91291160  0.75964373  0.76348829     0.97000
C1779       C  0.97157238  0.70410177  0.80296583     1.04500
O1780       O  0.97487663  0.77876939  0.81956718    -1.12700
O1781       O  0.49573553  0.79125101  0.90336842    -0.75200
O1782       O  0.96646954  0.75342410  0.90396750    -0.78600
O1783       O  0.93647304  0.76934210  0.74394238    -0.79300
C1784       C  0.98756568  0.76882173  0.92080113     0.95900
O1785       O  0.92167633  0.79846130  0.86522598    -0.77300
O1786       O  0.53713827  0.78958547  0.83588642    -0.82500
C1787       C  0.00000681  0.83618014  0.75755775     0.98500
C1788       C  0.54580925  0.77312966  0.80659450     1.04500
O1789       O  0.98825714  0.81288106  0.74117556    -0.78100
C1790       C  0.92979675  0.82666726  0.86466242     1.02800
Fe1791     Fe  0.81660126  0.98777719  0.84381930     1.65800
Fe1792     Fe  0.75827104  0.93442106  0.84800427     1.73200
Fe1793     Fe  0.76975901  0.97691306  0.76118888     1.54400
O1794       O  0.77123149  0.52216226  0.77815586    -0.81900
O1795       O  0.75314884  0.90602948  0.79939478    -0.80200
O1796       O  0.78979894  0.52848628  0.84065114    -0.84400
O1797       O  0.84273361  0.98854708  0.79122222    -0.79200
O1798       O  0.72445124  0.98242914  0.77833337    -0.81000
O1799       O  0.79982932  0.91126064  0.86192217    -0.83700
C1800       C  0.84001858  0.98155767  0.75418175     0.97000
C1801       C  0.77841160  0.53894418  0.80763333     1.04500
O1802       O  0.78159643  0.96621491  0.81760794    -1.12700
O1803       O  0.75801666  0.95709384  0.90213767    -0.75200
O1804       O  0.79589435  0.99138672  0.90048232    -0.78600
O1805       O  0.81434379  0.97347091  0.73850060    -0.79300
C1806       C  0.77297783  0.97862307  0.91820000     0.95900
O1807       O  0.83789751  0.94605678  0.85862353    -0.77300
O1808       O  0.71565571  0.95573232  0.83550467    -0.82500
C1809       C  0.75428721  0.90826716  0.76121760     0.98500
C1810       C  0.70699881  0.97428430  0.80751716     1.04500
O1811       O  0.76109227  0.93287211  0.74274284    -0.78100
C1812       C  0.82878151  0.91836662  0.86324657     1.02800
Fe1813     Fe  0.51135757  0.69040109  0.15226349     1.65800
Fe1814     Fe  0.56838316  0.74468075  0.15687312     1.73200
Fe1815     Fe  0.52580807  0.72585232  0.24130478     1.54400
O1816       O  0.97699135  0.72670601  0.23247536    -0.81900
O1817       O  0.59721297  0.74520929  0.20696970    -0.80200
O1818       O  0.96662683  0.71189950  0.16934994    -0.84400
O1819       O  0.50663113  0.66024912  0.19969512    -0.79200
O1820       O  0.52449723  0.77226172  0.23286635    -0.81000
O1821       O  0.58998221  0.70422769  0.13806622    -0.83700
C1822       C  0.51413066  0.65784154  0.23660941     0.97000
C1823       C  0.95847397  0.72326819  0.20285115     1.04500
O1824       O  0.53542518  0.72026527  0.18348239    -1.12700
O1825       O  0.54633468  0.75026202  0.10162929    -0.75200
O1826       O  0.51059196  0.71411134  0.09849530    -0.78600
O1827       O  0.52585255  0.67974400  0.25605414    -0.79300
C1828       C  0.52497237  0.73647243  0.08290387     0.95900
O1829       O  0.55241443  0.66853665  0.13659582    -0.77300
O1830       O  0.54764772  0.78562999  0.17465113    -0.82500
C1831       C  0.59566141  0.73855375  0.24433696     0.98500
C1832       C  0.53177726  0.79216018  0.20603410     1.04500
O1833       O  0.57130641  0.72800144  0.26093659    -0.78100
C1834       C  0.58089766  0.67660567  0.13244491     1.02800
Fe1835     Fe  0.74576658  0.56494123  0.14936034     1.65800
Fe1836     Fe  0.68633404  0.51414590  0.15341449     1.73200
Fe1837     Fe  0.72603237  0.53038662  0.23897550     1.54400
O1838       O  0.77224636  0.52244539  0.23035739    -0.81900
O1839       O  0.65854102  0.51101356  0.20388571    -0.80200
O1840       O  0.78705322  0.54617310  0.17287672    -0.84400
O1841       O  0.74642546  0.59719203  0.19281937    -0.79200
O1842       O  0.72681825  0.98124678  0.23151608    -0.81000
O1843       O  0.66493192  0.55531758  0.13786541    -0.83700
C1844       C  0.74479924  0.59840786  0.23078766     0.97000
C1845       C  0.79290840  0.53073560  0.20511232     1.04500
O1846       O  0.71954115  0.53683187  0.18064699    -1.12700
O1847       O  0.71208646  0.00860247  0.09474138    -0.75200
O1848       O  0.75105059  0.53677052  0.10087634    -0.78600
O1849       O  0.73584943  0.57571201  0.25220851    -0.79300
C1850       C  0.73330727  0.51861297  0.08265569     0.95900
O1851       O  0.70556413  0.58642655  0.12567368    -0.77300
O1852       O  0.71596232  0.96997059  0.16721054    -0.82500
C1853       C  0.65741529  0.52291757  0.23842529     0.98500
C1854       C  0.72589722  0.96255638  0.20240767     1.04500
O1855       O  0.68004316  0.53751015  0.25338487    -0.78100
C1856       C  0.67607789  0.58152743  0.12781344     1.02800
C1857       C  0.63663257  0.66060270  0.12659955    -0.06000
C1858       C  0.60496328  0.65259349  0.12291445     0.00000
C1859       C  0.59771177  0.62183229  0.11260676    -0.11000
C1860       C  0.62193924  0.59996413  0.11225639    -0.06000
C1861       C  0.65333056  0.60744085  0.12038786    -0.00100
C1862       C  0.66090797  0.63893519  0.12534292    -0.08500
C1863       C  0.69403536  0.65005023  0.13219517     0.61900
H1864       H  0.64235135  0.68415668  0.13251626     0.12500
H1865       H  0.61618787  0.57630829  0.10685225     0.12600
C1866       C  0.56481227  0.61151275  0.10185696     0.62100
F1867       F  0.69596299  0.68151546  0.13464333    -0.23100
F1868       F  0.71293787  0.64142117  0.10051186    -0.20400
F1869       F  0.70485952  0.63791638  0.16830590    -0.20100
F1870       F  0.55189310  0.63148218  0.07363513    -0.20100
F1871       F  0.54647977  0.61027898  0.13625985    -0.20500
F1872       F  0.56456423  0.58277859  0.08502604    -0.23100
C1873       C  0.78645664  0.99689983  0.98725937    -0.06000
C1874       C  0.76321462  0.98919447  0.95912431     0.00000
C1875       C  0.72614149  0.47759950  0.98207893    -0.08600
C1876       C  0.72001648  0.49009219  0.02028679    -0.06000
C1877       C  0.74290926  0.50565079  0.04281567    -0.00100
C1878       C  0.77919267  0.00693286  0.02658224    -0.08500
C1879       C  0.80578174  0.01439907  0.05542905     0.61900
H1880       H  0.81061422  0.99481929  0.97812750     0.12500
H1881       H  0.69675688  0.48797425  0.03273837     0.12600
C1882       C  0.69993393  0.46122170  0.96001690     0.62100
F1883       F  0.83456678  0.00650754  0.03983059    -0.23100
F1884       F  0.80188520  0.99851719  0.09160952    -0.20400
F1885       F  0.80639613  0.04540293  0.06254745    -0.20100
F1886       F  0.70793844  0.43102173  0.95460676    -0.20100
F1887       F  0.69456153  0.47525892  0.92285196    -0.20500
F1888       F  0.67219552  0.46152406  0.98145507    -0.23100
C1889       C  0.50269871  0.78239404  0.98804583    -0.06000
C1890       C  0.99750750  0.76012383  0.96229280     0.00000
C1891       C  0.00893323  0.73057881  0.97190574    -0.08600
C1892       C  0.01659834  0.72349301  0.01235784    -0.06000
C1893       C  0.51668484  0.74562847  0.04079426    -0.00100
C1894       C  0.51360113  0.77641826  0.02763701    -0.08500
C1895       C  0.52123295  0.80285648  0.05518951     0.61900
H1896       H  0.49947491  0.80576556  0.97779703     0.12500
H1897       H  0.02504206  0.70093688  0.02048426     0.12600
C1898       C  0.01418420  0.70704058  0.93939492     0.62100
F1899       F  0.51406068  0.83076131  0.03732743    -0.23100
F1900       F  0.55282152  0.80291891  0.06396296    -0.20400
F1901       F  0.50437148  0.80011196  0.09074264    -0.20100
F1902       F  0.03271671  0.71949313  0.90907959    -0.20100
F1903       F  0.98592407  0.69801812  0.92314480    -0.20500
F1904       F  0.02903115  0.68127998  0.95460179    -0.23100
C1905       C  0.87310299  0.84116409  0.86533319    -0.06000
C1906       C  0.90448198  0.85063233  0.86925368     0.00000
C1907       C  0.91019235  0.88234394  0.87530816    -0.08600
C1908       C  0.88469840  0.90291697  0.87504343    -0.06000
C1909       C  0.85346537  0.89367131  0.86870491    -0.00100
C1910       C  0.84761834  0.86170669  0.86497490    -0.08500
C1911       C  0.81487884  0.84871279  0.85980258     0.61900
H1912       H  0.86853544  0.81714022  0.86118543     0.12500
H1913       H  0.88928201  0.92695760  0.87894820     0.12600
C1914       C  0.94288646  0.89501778  0.88194329     0.62100
F1915       F  0.81477808  0.81719528  0.85744665    -0.23100
F1916       F  0.80171067  0.86005989  0.82448096    -0.20400
F1917       F  0.79663121  0.85636427  0.89257166    -0.20100
F1918       F  0.96015657  0.89269138  0.84680557    -0.20100
F1919       F  0.95740740  0.87908009  0.91315524    -0.20500
F1920       F  0.94249595  0.92549872  0.89230226    -0.23100
C1921       C  0.00819985  0.58609652  0.30724592    -0.06000
C1922       C  0.98059459  0.57262052  0.29292513     0.00000
C1923       C  0.46588343  0.58908852  0.26334442    -0.08600
C1924       C  0.47576063  0.61782158  0.24982246    -0.06000
C1925       C  0.50600315  0.62875381  0.25712439    -0.00100
C1926       C  0.01825004  0.61504135  0.29275218    -0.08500
C1927       C  0.04809276  0.62899873  0.30908537     0.61900
H1928       H  0.02230379  0.57328789  0.32877754     0.12500
H1929       H  0.46019237  0.63150459  0.23132402     0.12600
C1930       C  0.43346633  0.57772485  0.25234292     0.62100
F1931       F  0.06292293  0.60962601  0.33643938    -0.23100
F1932       F  0.04124515  0.65572004  0.32881620    -0.20400
F1933       F  0.06852870  0.63527383  0.27764101    -0.20100
F1934       F  0.41741609  0.56981638  0.28720808    -0.20100
F1935       F  0.43591043  0.55255031  0.22789934    -0.20500
F1936       F  0.41623313  0.59962576  0.23163074    -0.23100
C1937       C  0.52545942  0.87898842  0.21795315    -0.06000
C1938       C  0.50025070  0.88011297  0.24504266     0.00000
C1939       C  0.48341176  0.85314866  0.25432067    -0.08600
C1940       C  0.49274179  0.82576880  0.23681285    -0.06000
C1941       C  0.52001875  0.82370158  0.21325391    -0.00100
C1942       C  0.53629293  0.85098611  0.20260401    -0.08500
C1943       C  0.56585166  0.85052797  0.17744608     0.61900
H1944       H  0.53808457  0.89995751  0.21145652     0.12500
H1945       H  0.47994956  0.80506416  0.24424848     0.12600
C1946       C  0.95351625  0.85700071  0.26890005     0.62100
F1947       F  0.57878465  0.87936435  0.17266655    -0.23100
F1948       F  0.55916662  0.83955445  0.13938743    -0.20400
F1949       F  0.58785735  0.83204027  0.19617325    -0.20100
F1950       F  0.47088884  0.85554737  0.32363662    -0.20100
F1951       F  0.93831863  0.82916293  0.27143734    -0.20500
F1952       F  0.93382968  0.87800581  0.25050723    -0.23100
C1953       C  0.63306988  0.97354446  0.27260615    -0.06000
C1954       C  0.63700117  0.00504433  0.26546986     0.00000
C1955       C  0.60012846  0.52775719  0.25023772    -0.08600
C1956       C  0.58710953  0.01363307  0.29778470    -0.06000
C1957       C  0.58213772  0.98197531  0.30207137    -0.00100
C1958       C  0.60611796  0.96161829  0.29143905    -0.08500
C1959       C  0.60267026  0.92749240  0.29870535     0.61900
H1960       H  0.65102383  0.95823607  0.26218497     0.12500
H1961       H  0.55067395  0.52113656  0.25554570     0.12600
C1962       C  0.59708478  0.55307089  0.21851748     0.62100
F1963       F  0.62847782  0.91163712  0.28538187    -0.23100
F1964       F  0.57668663  0.91661142  0.27853209    -0.20400
F1965       F  0.59932390  0.92170216  0.33975733    -0.20100
F1966       F  0.60605220  0.54241104  0.18118227    -0.20100
F1967       F  0.61594355  0.57746289  0.22872221    -0.20500
F1968       F  0.56667131  0.56343406  0.21515520    -0.23100
C1969       C  0.84548890  0.00392113  0.18967399    -0.06000
C1970       C  0.82511192  0.52284909  0.21639910     0.00000
C1971       C  0.83763510  0.53368911  0.25310437    -0.08600
C1972       C  0.86492622  0.52053493  0.26808939    -0.06000
C1973       C  0.88129629  0.49801609  0.24714031    -0.00100
C1974       C  0.87347077  0.99106174  0.20524712    -0.08500
C1975       C  0.89002572  0.96651713  0.18176075     0.61900
H1976       H  0.83522084  0.99539595  0.16208701     0.12500
H1977       H  0.87375618  0.52808537  0.29696120     0.12600
C1978       C  0.82249555  0.55935158  0.27656053     0.62100
F1979       F  0.87336711  0.95826098  0.14764323    -0.23100
F1980       F  0.89376788  0.94073753  0.20598449    -0.20400
F1981       F  0.91894026  0.97712999  0.16924786    -0.20100
F1982       F  0.81707995  0.58387902  0.25087331    -0.20100
F1983       F  0.84138031  0.56949205  0.30770764    -0.20500
F1984       F  0.79459376  0.54964968  0.29335952    -0.23100
C1985       C  0.85025928  0.88098878  0.37935789    -0.06000
C1986       C  0.85883277  0.85001985  0.37893470     0.00000
C1987       C  0.89142826  0.84321942  0.38092670    -0.08600
C1988       C  0.91343305  0.86752117  0.38025098    -0.06000
C1989       C  0.90478194  0.89845926  0.37627625    -0.00100
C1990       C  0.87213030  0.90521957  0.37656625    -0.08500
C1991       C  0.85957486  0.93757300  0.37234305     0.61900
H1992       H  0.82568361  0.88629756  0.38033651     0.12500
H1993       H  0.93806034  0.86225976  0.38148291     0.12600
C1994       C  0.90361074  0.81067710  0.38354514     0.62100
F1995       F  0.82726463  0.93847357  0.37318294    -0.23100
F1996       F  0.86891527  0.95025610  0.33570124    -0.20400
F1997       F  0.87033391  0.95510660  0.40392568    -0.20100
F1998       F  0.89756418  0.79584284  0.34770612    -0.20100
F1999       F  0.88952293  0.79519642  0.41550187    -0.20500
F2000       F  0.93555060  0.80972234  0.39003718    -0.23100
C2001       C  0.73039323  0.87696241  0.22225796    -0.06000
C2002       C  0.75755865  0.87563600  0.24610140     0.00000
C2003       C  0.77658761  0.90177891  0.24977038    -0.08600
C2004       C  0.76618015  0.92944125  0.23261082    -0.06000
C2005       C  0.73771631  0.93147041  0.21140877    -0.00100
C2006       C  0.72012001  0.90461980  0.20445054    -0.08500
C2007       C  0.69012877  0.90538037  0.17995177     0.61900
H2008       H  0.71655632  0.85636912  0.21922269     0.12500
H2009       H  0.77975821  0.95007828  0.23682975     0.12600
C2010       C  0.80754180  0.90028986  0.27200353     0.62100
F2011       F  0.67617062  0.87688095  0.17813275    -0.23100
F2012       F  0.69654037  0.91506348  0.14078476    -0.20400
F2013       F  0.66913628  0.92517305  0.19723029    -0.20100
F2014       F  0.82616737  0.87820637  0.25501776    -0.20100
F2015       F  0.80239194  0.89291073  0.31217156    -0.20500
F2016       F  0.82347851  0.92782369  0.27011352    -0.23100
C2017       C  0.74389810  0.63392020  0.28926628    -0.06000
C2018       C  0.75522142  0.62712612  0.25039123     0.00000
C2019       C  0.77745123  0.64732336  0.23180649    -0.08600
C2020       C  0.78729921  0.67287613  0.25323543    -0.06000
C2021       C  0.77417137  0.68091783  0.29029895    -0.00100
C2022       C  0.75177308  0.66133884  0.30879064    -0.08500
C2023       C  0.73497436  0.66845137  0.34793069     0.61900
H2024       H  0.72734877  0.61843662  0.30361650     0.12500
H2025       H  0.80424250  0.68836943  0.23973452     0.12600
C2026       C  0.79053003  0.64339294  0.18912943     0.62100
F2027       F  0.70369674  0.66074730  0.34461956    -0.23100
F2028       F  0.73645746  0.69895487  0.35763003    -0.20400
F2029       F  0.74803948  0.65140872  0.37916066    -0.20100
F2030       F  0.76695274  0.64716434  0.16089109    -0.20100
F2031       F  0.80378005  0.61493740  0.18510352    -0.20500
F2032       F  0.81345366  0.66473213  0.17975969    -0.23100
C2033       C  0.87649522  0.72347061  0.24231666    -0.06000
C2034       C  0.86990675  0.75477523  0.24087002     0.00000
C2035       C  0.89024988  0.77516475  0.22035774    -0.08600
C2036       C  0.91846160  0.76362606  0.20500429    -0.06000
C2037       C  0.92599717  0.73254275  0.20926523    -0.00100
C2038       C  0.90439534  0.71197396  0.22702605    -0.08500
C2039       C  0.91187425  0.67839681  0.23236864     0.61900
H2040       H  0.86025389  0.70823366  0.25770583     0.12500
H2041       H  0.93548196  0.77895241  0.19135053     0.12600
C2042       C  0.88262528  0.80882619  0.21631311     0.62100
F2043       F  0.93691795  0.67517991  0.25852718    -0.23100
F2044       F  0.91928837  0.66624314  0.19525493    -0.20400
F2045       F  0.88696598  0.66194674  0.24829934    -0.20100
F2046       F  0.87781404  0.82098829  0.25418099    -0.20100
F2047       F  0.85580028  0.81244685  0.19341463    -0.20500
F2048       F  0.90641506  0.82506792  0.19743789    -0.23100
C2049       C  0.67678448  0.73866241  0.28868832    -0.06000
C2050       C  0.67854853  0.76874898  0.30305774     0.00000
C2051       C  0.65117483  0.78660605  0.30454196    -0.08600
C2052       C  0.62347642  0.77464434  0.28786947    -0.06000
C2053       C  0.62283224  0.74588813  0.26966900    -0.00100
C2054       C  0.64935170  0.72703545  0.27135862    -0.08500
C2055       C  0.64879933  0.69535069  0.25350880     0.61900
H2056       H  0.69784916  0.72504316  0.28850689     0.12500
H2057       H  0.60258902  0.78848767  0.28643512     0.12600
C2058       C  0.65168815  0.81864016  0.32118400     0.62100
F2059       F  0.62544625  0.67815999  0.27175244    -0.23100
F2060       F  0.67686629  0.68029913  0.25925966    -0.20400
F2061       F  0.64304594  0.69738653  0.21236538    -0.20100
F2062       F  0.67229445  0.83668710  0.29912061    -0.20100
F2063       F  0.66101143  0.81760390  0.36129312    -0.20500
F2064       F  0.62253809  0.83214339  0.31930829    -0.23100
C2065       C  0.73023545  0.76074844  0.47646693    -0.06000
C2066       C  0.76218607  0.75934684  0.46697592     0.00000
C2067       C  0.78342557  0.74836123  0.49693129    -0.08600
C2068       C  0.77175830  0.73944185  0.53519747    -0.06000
C2069       C  0.73979159  0.74069327  0.54466159    -0.00100
C2070       C  0.71849555  0.75127324  0.51453041    -0.08500
C2071       C  0.68343492  0.75166518  0.52162099     0.61900
H2072       H  0.71427469  0.76900239  0.45332320     0.12500
H2073       H  0.78777509  0.73127566  0.55832393     0.12600
C2074       C  0.81833972  0.74630552  0.48918062     0.62100
F2075       F  0.66703059  0.75847675  0.48647357    -0.23100
F2076       F  0.67614155  0.77352934  0.54973965    -0.20400
F2077       F  0.67349218  0.72329619  0.53550130    -0.20100
F2078       F  0.82951558  0.77397288  0.47441953    -0.20100
F2079       F  0.82411586  0.72372844  0.46145335    -0.20500
F2080       F  0.83487723  0.73914739  0.52411976    -0.23100
C2081       C  0.61211461  0.72255685  0.77972147    -0.06000
C2082       C  0.63518321  0.74458986  0.77354279     0.00000
C2083       C  0.63096502  0.77468556  0.78748181    -0.08600
C2084       C  0.60210794  0.78254197  0.80416006    -0.06000
C2085       C  0.57772221  0.76134238  0.80573329    -0.00100
C2086       C  0.58344169  0.73040992  0.79653854    -0.08500
C2087       C  0.55933781  0.70552917  0.80212620     0.61900
H2088       H  0.61595140  0.69945890  0.76956595     0.12500
H2089       H  0.59739395  0.80596642  0.81191247     0.12600
C2090       C  0.65573410  0.79898251  0.78113845     0.62100
F2091       F  0.57328325  0.67978866  0.81869151    -0.23100
F2092       F  0.54659945  0.69836608  0.76494050    -0.20400
F2093       F  0.53594839  0.71432661  0.82812146    -0.20100
F2094       F  0.65911953  0.80443047  0.74016524    -0.20100
F2095       F  0.68381432  0.78919198  0.79738227    -0.20500
F2096       F  0.64788253  0.82619010  0.79917091    -0.23100
C2097       C  0.84489138  0.74492351  0.68924611    -0.06000
C2098       C  0.82773693  0.72376591  0.71279313     0.00000
C2099       C  0.83958613  0.71385796  0.75067584    -0.08600
C2100       C  0.86670760  0.72702972  0.76520386    -0.06000
C2101       C  0.88387414  0.74895639  0.74302386    -0.00100
C2102       C  0.87320144  0.75775057  0.70374475    -0.08500
C2103       C  0.89044171  0.78139583  0.67826388     0.61900
H2104       H  0.83517796  0.75240236  0.66048879     0.12500
H2105       H  0.87451892  0.71986327  0.79501601     0.12600
C2106       C  0.82332893  0.68975208  0.77676494     0.62100
F2107       F  0.87424099  0.78881455  0.64316346    -0.23100
F2108       F  0.91928490  0.77020111  0.66728891    -0.20400
F2109       F  0.89441347  0.80779107  0.70012685    -0.20100
F2110       F  0.81344462  0.66639357  0.75256104    -0.20100
F2111       F  0.79806398  0.70220212  0.79644961    -0.20500
F2112       F  0.84308238  0.67726852  0.80581245    -0.23100
C2113       C  0.77819757  0.61237475  0.75018136    -0.06000
C2114       C  0.75193161  0.62716261  0.76585804     0.00000
C2115       C  0.73766334  0.61511146  0.80150436    -0.08600
C2116       C  0.74886518  0.58713255  0.81792966    -0.06000
C2117       C  0.77418198  0.57194368  0.80040803    -0.00100
C2118       C  0.79053017  0.58603607  0.76812317    -0.08500
C2119       C  0.82042235  0.57260972  0.75151950     0.61900
H2120       H  0.78920750  0.62149561  0.72306544     0.12500
H2121       H  0.73701527  0.57618718  0.84317577     0.12600
C2122       C  0.70983716  0.63055023  0.82054833     0.62100
F2123       F  0.83648027  0.59351918  0.72744942    -0.23100
F2124       F  0.81346701  0.54752306  0.72842271    -0.20400
F2125       F  0.83991588  0.56396890  0.78311969    -0.20100
F2126       F  0.69784160  0.61355734  0.85264946    -0.20100
F2127       F  0.68642388  0.63440561  0.79201065    -0.20500
F2128       F  0.71870928  0.65868514  0.83509753    -0.23100
C2129       C  0.71115103  0.84480645  0.70755001    -0.06000
C2130       C  0.73353625  0.82152717  0.71019509     0.00000
C2131       C  0.76428042  0.82879553  0.72334834    -0.08600
C2132       C  0.77080725  0.85849009  0.73630825    -0.06000
C2133       C  0.74750603  0.88060625  0.73797291    -0.00100
C2134       C  0.71730351  0.87412575  0.72275722    -0.08500
C2135       C  0.69148166  0.89769220  0.72435717     0.61900
H2136       H  0.68821111  0.83937137  0.69591992     0.12500
H2137       H  0.79382733  0.86416736  0.74761667     0.12600
C2138       C  0.79008547  0.80522622  0.72480947     0.62100
F2139       F  0.66336507  0.88629029  0.71022534    -0.23100
F2140       F  0.69959911  0.92282335  0.70076370    -0.20400
F2141       F  0.68708298  0.90676107  0.76384745    -0.20100
F2142       F  0.79001796  0.78893688  0.68934391    -0.20100
F2143       F  0.78559693  0.78563623  0.75750336    -0.20500
F2144       F  0.81924037  0.81862523  0.72891833    -0.23100
C2145       C  0.51208814  0.97574362  0.54053829    -0.06000
C2146       C  0.50988432  0.50801932  0.53649734     0.00000
C2147       C  0.50006144  0.52908085  0.50595665    -0.08600
C2148       C  0.99806294  0.51822289  0.47121150    -0.06000
C2149       C  0.99908375  0.98764974  0.46345900    -0.00100
C2150       C  0.99934516  0.96677436  0.49681292    -0.08500
C2151       C  0.98825329  0.93401096  0.49254803     0.61900
H2152       H  0.51426289  0.95992425  0.56591567     0.12500
H2153       H  0.99258668  0.53420811  0.44690947     0.12600
C2154       C  0.49698616  0.56301158  0.51389164     0.62100
F2155       F  0.49948927  0.91483371  0.53275468    -0.23100
F2156       F  0.52073156  0.91914425  0.47110766    -0.20400
F2157       F  0.95856163  0.93363275  0.47594529    -0.20100
F2158       F  0.52435553  0.57404351  0.53062390    -0.20100
F2159       F  0.97786512  0.56977626  0.54183370    -0.20500
F2160       F  0.99962152  0.58002146  0.48158254    -0.23100
C2161       C  0.65633521  0.61672149  0.63440322    -0.06000
C2162       C  0.64640041  0.64741850  0.63428152     0.00000
C2163       C  0.61367127  0.65289298  0.63043156    -0.08600
C2164       C  0.59275003  0.62775035  0.62931343    -0.06000
C2165       C  0.60256878  0.59702454  0.63173604    -0.00100
C2166       C  0.63541381  0.59156915  0.63309232    -0.08500
C2167       C  0.64898224  0.55953828  0.63368786     0.61900
H2168       H  0.68109176  0.61230719  0.63681280     0.12500
H2169       H  0.56796972  0.63221431  0.62768640     0.12600
C2170       C  0.60018716  0.68494003  0.62777009     0.62100
F2171       F  0.68126608  0.55978908  0.63147267    -0.23100
F2172       F  0.63797335  0.54357482  0.60076544    -0.20400
F2173       F  0.64082201  0.54447459  0.66926657    -0.20100
F2174       F  0.61457354  0.70132492  0.59683972    -0.20100
F2175       F  0.60450382  0.69957324  0.66416156    -0.20500
F2176       F  0.56844874  0.68471840  0.61964334    -0.23100
C2177       C  0.64971602  0.96718650  0.81423756    -0.06000
C2178       C  0.67502766  0.98683923  0.80691330     0.00000
C2179       C  0.66929991  0.01698382  0.79238841    -0.08600
C2180       C  0.63348292  0.51825519  0.77833196    -0.06000
C2181       C  0.61516036  0.00297699  0.77958744    -0.00100
C2182       C  0.61933338  0.97523556  0.80170801    -0.08500
C2183       C  0.59225401  0.95379575  0.81044950     0.61900
H2184       H  0.65419410  0.94478297  0.82723876     0.12500
H2185       H  0.62821134  0.54172420  0.77007181     0.12600
C2186       C  0.68456840  0.53646138  0.80654751     0.62100
F2187       F  0.60179327  0.92729395  0.83014760    -0.23100
F2188       F  0.57789978  0.94577194  0.77481589    -0.20400
F2189       F  0.57086094  0.96821717  0.83481008    -0.20100
F2190       F  0.71100507  0.03946143  0.75505607    -0.20100
F2191       F  0.70056119  0.52958392  0.84195974    -0.20500
F2192       F  0.66887842  0.56363504  0.81199725    -0.23100
C2193       C  0.86852026  0.50550267  0.70533458    -0.06000
C2194       C  0.86840935  0.98374073  0.72908709     0.00000
C2195       C  0.89656852  0.97104450  0.74344003    -0.08600
C2196       C  0.92121077  0.50205206  0.75382261    -0.06000
C2197       C  0.92410193  0.51628735  0.71530765    -0.00100
C2198       C  0.89701154  0.51808071  0.69036106    -0.08500
C2199       C  0.89759585  0.53424995  0.64948879     0.61900
H2200       H  0.84712601  0.50827207  0.68819198     0.12500
H2201       H  0.94041834  0.50212536  0.77511694     0.12600
C2202       C  0.89768255  0.94733292  0.77745718     0.62100
F2203       F  0.86842813  0.53453107  0.63131795    -0.23100
F2204       F  0.91799813  0.51960069  0.62397542    -0.20400
F2205       F  0.90707755  0.56419998  0.65418410    -0.20100
F2206       F  0.87093704  0.92949049  0.77810258    -0.20100
F2207       F  0.88776770  0.48355066  0.83793955    -0.20500
F2208       F  0.92283209  0.92801621  0.77269176    -0.23100
C2209       C  0.97278445  0.63017168  0.74668989    -0.06000
C2210       C  0.49694037  0.61519760  0.75970570     0.00000
C2211       C  0.51089515  0.62638821  0.79567109    -0.08600
C2212       C  0.99860118  0.65400286  0.81673478    -0.06000
C2213       C  0.97600077  0.67100426  0.79520861    -0.00100
C2214       C  0.96131631  0.65767917  0.76141816    -0.08500
C2215       C  0.93278215  0.67201628  0.74167200     0.61900
H2216       H  0.96206727  0.62074411  0.71991273     0.12500
H2217       H  0.51096462  0.66394292  0.83785682     0.12600
C2218       C  0.53765200  0.60971998  0.81631917     0.62100
F2219       F  0.91862523  0.65269443  0.71434265    -0.23100
F2220       F  0.94082798  0.69862943  0.72119892    -0.20400
F2221       F  0.91126148  0.67829565  0.77137201    -0.20100
F2222       F  0.56195266  0.60617743  0.78930330    -0.20100
F2223       F  0.52758462  0.58136849  0.82998402    -0.20500
F2224       F  0.54887934  0.62538671  0.84938831    -0.23100
C2225       C  0.54390220  0.90351184  0.71856388    -0.06000
C2226       C  0.51985468  0.92290086  0.70558377     0.00000
C2227       C  0.48954530  0.91051550  0.69960254    -0.08600
C2228       C  0.98634445  0.87977977  0.71192903    -0.06000
C2229       C  0.50614418  0.86356281  0.73403892    -0.00100
C2230       C  0.53750768  0.87406844  0.73378665    -0.08500
C2231       C  0.56397561  0.85465285  0.75065370     0.61900
H2232       H  0.56749740  0.91233980  0.71944957     0.12500
H2233       H  0.96286170  0.87057764  0.70986463     0.12600
C2234       C  0.96768918  0.92418781  0.67022913     0.62100
F2235       F  0.59290785  0.86769333  0.74292580    -0.23100
F2236       F  0.56329977  0.82623096  0.73307835    -0.20400
F2237       F  0.56091514  0.85128910  0.79211118    -0.20100
F2238       F  0.96119336  0.90615040  0.63727103    -0.20100
F2239       F  0.47224465  0.95569075  0.66319230    -0.20500
F2240       F  0.94083628  0.92669401  0.69285179    -0.23100
loop_ 
_geom_bond_atom_site_label_1 
_geom_bond_atom_site_label_2 
_geom_bond_distance 
_geom_bond_site_symmetry_2 
_ccdc_geom_bond_type 
Fe1          O17   2.097       .  S
Fe1           O7   2.060       .  S
Fe1          O14   2.074       .  S
Fe1         O566   2.090   1_545  S
Fe1          O12   1.957       .  S
Fe2           O5   2.073   1_455  S
Fe2           O9   2.097       .  S
Fe2        O1133   2.064       .  S
Fe2        O1138   2.101   1_455  S
Fe2          O12   1.953       .  S
Fe3          O21   2.079       .  S
Fe3          O15   2.052       .  S
Fe3        O1128   2.040   1_455  S
Fe3         O564   2.076   1_545  S
Fe3          O12   1.966       .  S
O4         Fe563   2.092       .  S
O4           C11   1.278       .  A
O5           C19   1.273   1_655  A
O6         Fe561   2.076       .  S
O6           C11   1.274       .  A
O7           C10   1.268       .  A
O8        Fe1123   2.046       .  S
O8           C20   1.262       .  A
O9           C22   1.283       .  A
C10          O15   1.261       .  A
C10        C1061   1.471       .  S
C11         C546   1.493       .  S
O13       Fe1122   2.071       .  S
O13        C1136   1.265       .  A
O14          C16   1.266       .  A
C16        O1133   1.263       .  A
C16         C466   1.488       .  S
O17          C22   1.278       .  A
O18       Fe1122   2.095       .  S
O18          C20   1.271       .  A
C19          O21   1.272       .  A
C19         C530   1.496   1_455  S
C20         C517   1.485       .  S
C22         C485   1.515       .  S
Fe23         O39   2.093       .  S
Fe23         O29   2.059       .  S
Fe23         O36   2.065       .  S
Fe23         O28   2.074       .  S
Fe23         O34   1.968       .  S
Fe24         O27   2.034       .  S
Fe24         O31   2.108       .  S
Fe24         O35   2.055       .  S
Fe24         O40   2.105       .  S
Fe24         O34   1.968       .  S
Fe25         O43   2.089       .  S
Fe25         O30   2.035       .  S
Fe25         O37   2.067       .  S
Fe25         O26   2.069       .  S
Fe25         O34   1.971       .  S
O26          C33   1.272       .  A
O27          C41   1.263       .  A
O28          C33   1.274       .  A
O29          C32   1.265       .  A
O30          C42   1.266       .  A
O31          C44   1.284       .  A
C32          O37   1.266       .  A
C32         C402   1.474       .  S
C33         C450   1.480       .  S
O35          C38   1.258       .  A
O36          C38   1.263       .  A
C38         C389   1.501       .  S
O39          C44   1.280       .  A
O40          C42   1.278       .  A
C41          O43   1.269       .  A
C41         C434   1.498       .  S
C42         C418   1.477       .  S
C44         C482   1.518       .  S
Fe45         O61   2.094       .  S
Fe45         O51   2.057       .  S
Fe45         O58   2.058       .  S
Fe45         O50   2.095       .  S
Fe45         O56   1.962       .  S
Fe46         O49   2.060       .  S
Fe46         O53   2.069       .  S
Fe46         O57   2.066       .  S
Fe46         O62   2.073       .  S
Fe46         O56   1.965       .  S
Fe47         O65   2.066       .  S
Fe47         O52   2.045       .  S
Fe47         O59   2.061       .  S
Fe47         O48   2.040       .  S
Fe47         O56   1.966       .  S
O48          C55   1.269       .  A
O49          C63   1.268       .  A
O50          C55   1.278       .  A
O51          C54   1.264       .  A
O52          C64   1.269       .  A
O53          C66   1.274       .  A
C54          O59   1.263       .  A
C54         C322   1.474       .  S
C55         C370   1.476       .  S
O57          C60   1.264       .  A
O58          C60   1.260       .  A
C60         C386   1.505       .  S
O61          C66   1.283       .  A
O62          C64   1.271       .  A
C63          O65   1.267       .  A
C63         C354   1.480       .  S
C64         C341   1.470       .  S
C66         C306   1.507       .  S
Fe67         O83   2.076       .  S
Fe67         O80   2.074       .  S
Fe67       O1193   2.081       .  S
Fe67       O1192   2.069       .  S
Fe67         O78   1.951       .  S
Fe68         O71   2.047       .  S
Fe68         O75   2.091       .  S
Fe68        O639   2.057       .  S
Fe68        O644   2.083       .  S
Fe68         O78   1.939       .  S
Fe69         O87   2.083       .  S
Fe69         O81   2.059       .  S
Fe69        O634   2.048       .  S
Fe69       O1190   2.065       .  S
Fe69         O78   1.962       .  S
O70       Fe1189   2.059   1_455  S
O70          C77   1.272       .  A
O71          C85   1.266       .  A
O72       Fe1187   2.074   1_455  S
O72          C77   1.274       .  A
O73       Fe1187   2.073   1_455  S
O73        C1196   1.267   1_455  A
O74        Fe629   2.058   1_545  S
O74          C86   1.269       .  A
O75          C88   1.278       .  A
C76          O81   1.266       .  A
C76        O1193   1.270       .  A
C76        C1378   1.471       .  S
C77         C277   1.470       .  S
O79        Fe628   2.061       .  S
O79         C642   1.262       .  A
O80          C82   1.262       .  A
C82         O639   1.262       .  A
C82         C469   1.503       .  S
O83          C88   1.282       .  A
O84        Fe628   2.079   1_545  S
O84          C86   1.272       .  A
C85          O87   1.268       .  A
C85         C853   1.493       .  S
C86         C242   1.471       .  S
C88         C309   1.507       .  S
Fe89        O105   2.102       .  S
Fe89         O95   2.043       .  S
Fe89        O102   2.056       .  S
Fe89         O94   2.105       .  S
Fe89        O100   1.970       .  S
Fe90        O101   2.066       .  S
Fe90        O106   2.087   1_655  S
Fe90       O1213   2.052       .  S
Fe90       O1217   2.098       .  S
Fe90       O1220   1.974       .  S
Fe91        O109   2.080       .  S
Fe91        O103   2.085       .  S
Fe91         O92   2.067       .  S
Fe91       O1216   2.055       .  S
Fe91        O100   1.981       .  S
O92          C99   1.269       .  A
O93       Fe1210   2.061       .  S
O93         C107   1.266       .  A
O94          C99   1.276       .  A
O95          C98   1.267       .  A
O96       Fe1211   2.050   1_455  S
O96         C108   1.269       .  A
O97       Fe1210   2.086       .  S
O97         C110   1.274       .  A
C98         O103   1.270       .  A
C98         C421   1.497       .  S
C99         C533   1.490       .  S
O100      Fe1210   1.983       .  S
O101       C1224   1.265       .  A
O102        C104   1.261       .  A
C104       O1221   1.265       .  A
C104        C210   1.485       .  S
O105        C110   1.281       .  A
O106        C108   1.275       .  A
C107        O109   1.268       .  A
C107       C1669   1.481       .  S
C108        C405   1.475       .  S
C110        C226   1.523       .  S
Fe111       O127   2.113       .  S
Fe111       O117   2.038       .  S
Fe111       O124   2.058       .  S
Fe111       O676   2.125       .  S
Fe111       O122   1.935       .  S
Fe112       O115   2.073       .  S
Fe112       O119   2.073       .  S
Fe112       O123   2.081       .  S
Fe112       O128   2.065       .  S
Fe112       O122   1.949       .  S
Fe113       O131   2.062       .  S
Fe113       O118   2.071       .  S
Fe113       O125   2.088       .  S
Fe113       O674   2.043       .  S
Fe113       O122   1.956       .  S
O114       Fe673   2.054   1_545  S
O114        C121   1.268       .  A
O115        C129   1.269       .  A
O116       Fe671   2.086   1_545  S
O116        C121   1.272       .  A
O117        C120   1.258       .  A
O118        C130   1.273       .  A
O119        C132   1.272       .  A
C120        O125   1.270       .  A
C120        C514   1.487       .  S
C121        C437   1.477       .  S
O123        C126   1.269       .  A
O124        C126   1.266       .  A
C126        C194   1.477       .  S
O127        C132   1.281       .  A
O128        C130   1.271       .  A
C129        O131   1.268       .  A
C129        C453   1.468       .  S
C130        C498   1.466       .  S
C132        C229   1.516       .  S
Fe133       O149   2.110       .  S
Fe133       O139   2.044       .  S
Fe133       O146   2.050       .  S
Fe133      O1258   2.102   1_455  S
Fe133       O144   1.962       .  S
Fe134       O137   2.058       .  S
Fe134       O141   2.096       .  S
Fe134       O145   2.067       .  S
Fe134       O150   2.084       .  S
Fe134       O144   1.971       .  S
Fe135       O153   2.063       .  S
Fe135       O140   2.058       .  S
Fe135       O147   2.083       .  S
Fe135      O1256   2.062   1_455  S
Fe135       O144   1.971       .  S
O136      Fe1255   2.060       .  S
O136        C143   1.267       .  A
O137        C151   1.264       .  A
O138      Fe1253   2.077       .  S
O138        C143   1.270       .  A
O139        C142   1.264       .  A
O140        C152   1.272       .  A
O141        C154   1.284       .  A
C142        O147   1.268       .  A
C142        C245   1.484       .  S
C143        C357   1.472       .  S
O145        C148   1.261       .  A
O146        C148   1.261       .  A
C148        C213   1.492       .  S
O149        C154   1.282       .  A
O150        C152   1.276       .  A
C151        O153   1.265       .  A
C151        C373   1.469       .  S
C152        C261   1.482       .  S
C154        C178   1.526       .  S
Fe155       O171   2.117       .  S
Fe155       O161   2.030       .  S
Fe155       O168   2.063       .  S
Fe155       O160   2.112       .  S
Fe155       O166   1.961       .  S
Fe156       O159   2.054       .  S
Fe156       O163   2.096       .  S
Fe156       O727   2.072       .  S
Fe156       O732   2.083   1_545  S
Fe156       O166   1.966       .  S
Fe157       O175   2.047       .  S
Fe157       O169   2.071       .  S
Fe157       O158   2.026       .  S
Fe157       O722   2.061   1_545  S
Fe157       O166   1.971       .  S
O158        C165   1.263       .  A
O159        C173   1.262       .  A
O160        C165   1.280       .  A
O161        C164   1.258       .  A
O162       Fe717   2.078       .  S
O162        C174   1.277       .  A
O163        C176   1.283       .  A
C164        O169   1.268       .  A
C164        C338   1.489       .  S
C165        C290   1.483       .  S
O167       Fe716   2.068       .  S
O167        C730   1.261       .  A
O168        C170   1.262       .  A
C170        O727   1.262       .  A
C170        C197   1.497       .  S
O171        C176   1.284       .  A
O172       Fe716   2.066       .  S
O172        C174   1.274       .  A
C173        O175   1.259       .  A
C173        C834   1.463       .  S
C174        C325   1.479       .  S
C176        C181   1.526       .  S
C177        C178   1.410       .  A
C177        C182   1.417       .  A
C177        H184   1.081       .  S
C178        C179   1.429       .  A
C179        C180   1.422       .  A
C179        C186   1.520       .  S
C180        C181   1.411       .  A
C180        H185   1.082       .  S
C181        C182   1.430       .  A
C182        C183   1.518       .  S
C183        F187   1.385       .  S
C183        F188   1.383       .  S
C183        F189   1.379       .  S
C186        F190   1.384       .  S
C186        F191   1.383       .  S
C186        F192   1.385       .  S
C193        C194   1.404       .  A
C193        C198   1.408       .  A
C193        H200   1.084       .  S
C194        C755   1.417       .  A
C195        C196   1.410   1_556  A
C195        C754   1.426   1_545  A
C195        C202   1.521       .  S
C196        C197   1.404       .  A
C196        H201   1.083       .  S
C197        C758   1.422   1_545  A
C198        C757   1.414   1_556  A
C198        C199   1.517   1_556  S
C199        F203   1.385   1_554  S
C199        F204   1.383       .  S
C199        F205   1.383       .  S
C202        F206   1.383       .  S
C202        F207   1.383       .  S
C202        F208   1.385       .  S
C209        C214   1.410   1_556  A
C209       C1330   1.408   1_455  A
C209        H216   1.082       .  S
C210        C211   1.420       .  A
C210       C1329   1.405       .  A
C211        C212   1.406   1_556  A
C211        C218   1.519       .  S
C212       C1333   1.401       .  A
C212        H217   1.083       .  S
C213        C214   1.421       .  A
C213       C1332   1.405   1_455  A
C214        C215   1.520       .  S
C215        F219   1.385       .  S
C215        F220   1.383       .  S
C215        F221   1.383       .  S
C218        F222   1.381       .  S
C218        F223   1.382       .  S
C218        F224   1.385       .  S
C225        C226   1.412       .  A
C225        C230   1.417       .  A
C225        H232   1.082       .  S
C226        C227   1.432       .  A
C227        C228   1.417       .  A
C227        C234   1.523       .  S
C228        C229   1.408       .  A
C228        H233   1.081       .  S
C229        C230   1.426       .  A
C230        C231   1.521       .  S
C231        F235   1.385       .  S
C231        F236   1.383       .  S
C231        F237   1.384       .  S
C234        F238   1.382       .  S
C234        F239   1.383       .  S
C234        F240   1.385       .  S
C241        C242   1.405       .  A
C241        C246   1.416       .  A
C241        H248   1.083       .  S
C242       C1363   1.410       .  A
C243        C244   1.397       .  A
C243       C1362   1.412       .  A
C243        C250   1.514       .  S
C244        C245   1.402   1_655  A
C244        H249   1.082       .  S
C245       C1366   1.418       .  A
C246       C1365   1.421       .  A
C246        C247   1.515       .  S
C247        F251   1.385       .  S
C247        F252   1.383       .  S
C247        F253   1.382       .  S
C250        F254   1.380       .  S
C250        F255   1.382       .  S
C250        F256   1.385       .  S
C257        C258   1.406   1_455  A
C257        C262   1.413       .  A
C257        H264   1.083       .  S
C258       C1196   1.472       .  S
C258        C259   1.408       .  A
C259        C260   1.400       .  A
C259       C1386   1.516       .  S
C260        C261   1.406   1_655  A
C260        H265   1.083       .  S
C261        C262   1.417       .  A
C262        C263   1.517       .  S
C263        F267   1.385       .  S
C263        F268   1.383       .  S
C263        F269   1.383       .  S
C266       C1379   1.517       .  S
C266        F271   1.382       .  S
C266        F272   1.383       .  S
C266       F1390   1.381       .  S
F270       C1386   1.379       .  S
C273        C274   1.405       .  A
C273        C278   1.407       .  A
C273        H280   1.084       .  S
C274        C733   1.468       .  S
C274        C835   1.409       .  A
C275        C834   1.407       .  A
C275        C836   1.401       .  A
C275        C282   1.519       .  S
C276        C277   1.406       .  A
C276        C835   1.404       .  A
C276        H841   1.084       .  S
C277        C278   1.412       .  A
C278        C279   1.517       .  S
C279        F283   1.385       .  S
C279        F284   1.383       .  S
C279        F285   1.383       .  S
H281        C836   1.084       .  S
C282        F286   1.382       .  S
C282        F287   1.383       .  S
C282        F288   1.385       .  S
C289        C294   1.422       .  A
C289        C850   1.408       .  A
C289        H296   1.083       .  S
C290        C291   1.418       .  A
C290        C849   1.405       .  A
C291        C292   1.391       .  A
C291        C298   1.523       .  S
C292        C293   1.407       .  A
C292        H297   1.082       .  S
C293        C645   1.505   1_545  S
C293        C854   1.427   1_545  A
C294        C853   1.422       .  A
C294        C295   1.516       .  S
C295        F299   1.384       .  S
C295        F300   1.384       .  S
C295        F301   1.383       .  S
C298        F302   1.378       .  S
C298        F303   1.385       .  S
C298        F304   1.383       .  S
C305        C306   1.406       .  A
C305        C310   1.409       .  A
C305        H312   1.080       .  S
C306        C307   1.427       .  A
C307        C308   1.411       .  A
C307        C314   1.522       .  S
C308        C309   1.408       .  A
C308        H313   1.082       .  S
C309        C310   1.429       .  A
C310        C311   1.523       .  S
C311        F315   1.385       .  S
C311        F316   1.382       .  S
C311        F317   1.383       .  S
C314        F318   1.383       .  S
C314        F319   1.384       .  S
C314        F320   1.385       .  S
C321        C322   1.405       .  A
C321        C326   1.409       .  A
C321        H328   1.083       .  S
C322        C323   1.412       .  A
C323        C324   1.402       .  A
C323        C330   1.517       .  S
C324        C325   1.406       .  A
C324        H329   1.084       .  S
C325        C326   1.416       .  A
C326        C327   1.518       .  S
C327        F331   1.385       .  S
C327        F332   1.383       .  S
C327        F333   1.384       .  S
C330        F334   1.383       .  S
C330        F335   1.380       .  S
C330        F336   1.385       .  S
C337        C338   1.412       .  A
C337        C342   1.411       .  A
C337        H344   1.082       .  S
C338        C339   1.432       .  A
C339        C340   1.395       .  A
C339        C346   1.531       .  S
C340        C341   1.396       .  A
C340        H345   1.083       .  S
C341        C342   1.410       .  A
C342        C343   1.516       .  S
C343        F347   1.384       .  S
C343        F348   1.382       .  S
C343        F349   1.383       .  S
C346        F350   1.383       .  S
C346        F351   1.382       .  S
C346        F352   1.385       .  S
C353        C354   1.405       .  A
C353        C358   1.398       .  A
C353        H360   1.084       .  S
C354        C355   1.415       .  A
C355        C356   1.414       .  A
C355        C362   1.516       .  S
C356        C357   1.407       .  A
C356        H361   1.083       .  S
C357        C358   1.410       .  A
C358        C359   1.515       .  S
C359        F363   1.382       .  S
C359        F364   1.383       .  S
C359        F365   1.385       .  S
C362        F366   1.383       .  S
C362        F367   1.383       .  S
C362        F368   1.385       .  S
C369        C370   1.408       .  A
C369        C374   1.404       .  A
C369        H376   1.082       .  S
C370        C371   1.414       .  A
C371        C372   1.408       .  A
C371        C378   1.518       .  S
C372        C373   1.406       .  A
C372        H377   1.084       .  S
C373        C374   1.408       .  A
C374        C375   1.517       .  S
C375        F379   1.385       .  S
C375        F380   1.383       .  S
C375        F381   1.382       .  S
C378        F382   1.383       .  S
C378        F383   1.382       .  S
C378        F384   1.385       .  S
C385        C386   1.409       .  A
C385        C390   1.410       .  A
C385        H392   1.082       .  S
C386        C387   1.427       .  A
C387        C388   1.411       .  A
C387        C394   1.522       .  S
C388        C389   1.406       .  A
C388        H393   1.082       .  S
C389        C390   1.424       .  A
C390        C391   1.523       .  S
C391        F395   1.385       .  S
C391        F396   1.383       .  S
C391        F397   1.384       .  S
C394        F398   1.383       .  S
C394        F399   1.384       .  S
C394        F400   1.385       .  S
C401        C402   1.397       .  A
C401        C406   1.403       .  A
C401        H408   1.084       .  S
C402        C403   1.419       .  A
C403        C404   1.406       .  A
C403        C410   1.516       .  S
C404        C405   1.399       .  A
C404        H409   1.083       .  S
C405        C406   1.419       .  A
C406        C407   1.513       .  S
C407        F411   1.383       .  S
C407        F412   1.383       .  S
C407        F413   1.382       .  S
C410        F414   1.381       .  S
C410        F415   1.383       .  S
C410        F416   1.385       .  S
C417        C418   1.406       .  A
C417        C422   1.421       .  A
C417        H424   1.082       .  S
C418        C419   1.411       .  A
C419        C420   1.391       .  A
C419        C426   1.520       .  S
C420        C421   1.406       .  A
C420        H425   1.079       .  S
C421        C422   1.423       .  A
C422        C423   1.515       .  S
C423        F427   1.384       .  S
C423        F428   1.383       .  S
C423        F429   1.384       .  S
C426        F430   1.380       .  S
C426        F431   1.382       .  S
C426        F432   1.384       .  S
C433        C434   1.410       .  A
C433        C438   1.393       .  A
C433        H440   1.083       .  S
C434        C435   1.422       .  A
C435        C436   1.419       .  A
C435        C442   1.516       .  S
C436        C437   1.407       .  A
C436        H441   1.081       .  S
C437        C438   1.409       .  A
C438        C439   1.519       .  S
C439        F443   1.385       .  S
C439        F444   1.383       .  S
C439        F445   1.383       .  S
C442        F446   1.385       .  S
C442        F447   1.384       .  S
C442        F448   1.382       .  S
C449        C450   1.402       .  A
C449        C454   1.405       .  A
C449        H456   1.082       .  S
C450        C451   1.421       .  A
C451        C452   1.404       .  A
C451        C458   1.516       .  S
C452        C453   1.398       .  A
C452        H457   1.084       .  S
C453        C454   1.414       .  A
C454        C455   1.515       .  S
C455        F459   1.385       .  S
C455        F460   1.383       .  S
C455        F461   1.380       .  S
C458        F462   1.382       .  S
C458        F463   1.382       .  S
C458        F464   1.385       .  S
C465       C1026   1.406       .  A
C465       C1590   1.411       .  A
C465        H472   1.083       .  S
C466        C467   1.420       .  A
C466       C1025   1.405   1_545  A
C467       C1588   1.409       .  A
C467        C474   1.519       .  S
C468       C1587   1.409       .  A
C468       C1029   1.404   1_545  A
C468        H473   1.083       .  S
C469        C470   1.426       .  A
C469       C1028   1.409       .  A
C470       C1585   1.412       .  A
C470        C471   1.522       .  S
C471        F477   1.384       .  S
C471       F1595   1.385       .  S
C471       F1596   1.383       .  S
C474        F478   1.382       .  S
C474       F1599   1.382       .  S
C474       F1600   1.385       .  S
F475       C1591   1.385       .  S
F476       C1591   1.382       .  S
F479       C1594   1.382       .  S
F480       C1594   1.385       .  S
C481        C482   1.409       .  A
C481        C486   1.419       .  A
C481        H488   1.082       .  S
C482        C483   1.429       .  A
C483        C484   1.415       .  A
C483        C490   1.518       .  S
C484        C485   1.406       .  A
C484        H489   1.082       .  S
C485        C486   1.428       .  A
C486        C487   1.520       .  S
C487        F491   1.385       .  S
C487        F492   1.382       .  S
C487        F493   1.383       .  S
C490        F494   1.383       .  S
C490        F495   1.379       .  S
C490        F496   1.384       .  S
C497        C498   1.397       .  A
C497        C502   1.404       .  A
C497        H504   1.082       .  S
C498        C499   1.417       .  A
C499       C1060   1.400       .  A
C499       C1066   1.511       .  S
C500       C1059   1.395       .  A
C500       C1061   1.395       .  A
C500        H505   1.085       .  S
C501        C570   1.467       .  S
C501        C502   1.418       .  A
C501       C1060   1.395       .  A
C502        C503   1.517       .  S
C503        F507   1.385       .  S
C503        F508   1.381       .  S
C503        F509   1.382       .  S
C506       C1059   1.510       .  S
C506        F511   1.380       .  S
C506        F512   1.384       .  S
C506       F1070   1.383       .  S
F510       C1066   1.382       .  S
C513        C518   1.416   1_565  A
C513       C1074   1.408       .  A
C513        H520   1.082   1_565  S
C514        C515   1.426       .  A
C514       C1073   1.415       .  A
C515       C1076   1.390       .  A
C515        C522   1.530       .  S
C516        C517   1.407   1_565  A
C516       C1075   1.394       .  A
C516        H521   1.084       .  S
C517        C518   1.416       .  A
C518        C519   1.515       .  S
C519        F523   1.384       .  S
C519        F524   1.383       .  S
C519        F525   1.383       .  S
C522        F526   1.384       .  S
C522        F528   1.385       .  S
C522       F1087   1.381       .  S
F527       C1082   1.383       .  S
C529        C534   1.399       .  A
C529       C1650   1.404       .  A
C529        H536   1.083       .  S
C530        C531   1.422   1_655  A
C530       C1649   1.403       .  A
C531       C1652   1.421       .  A
C531        C538   1.514       .  S
C532        C533   1.406       .  A
C532       C1651   1.420       .  A
C532       H1657   1.080       .  S
C533        C534   1.412       .  A
C534        C535   1.508       .  S
C535        F539   1.385       .  S
C535        F540   1.381       .  S
C535        F541   1.380       .  S
H537       C1652   1.080       .  S
C538        F542   1.383       .  S
C538        F543   1.383       .  S
C538        F544   1.384       .  S
C545        C546   1.405       .  A
C545        C550   1.414       .  A
C545        H552   1.082       .  S
C546        C547   1.419   1_455  A
C547       C1668   1.401       .  A
C547       C1674   1.504       .  S
C548       C1667   1.407       .  A
C548       C1669   1.398       .  A
C548        H553   1.083       .  S
C549       C1227   1.476       .  S
C549        C550   1.418   1_655  A
C549       C1668   1.393       .  A
C550        C551   1.514       .  S
C551        F555   1.384       .  S
C551        F556   1.383       .  S
C551        F557   1.381       .  S
C554       C1667   1.520       .  S
C554        F558   1.382       .  S
C554        F560   1.385       .  S
C554       F1679   1.382       .  S
F559       C1674   1.377       .  S
Fe561       O577   2.082       .  S
Fe561       O567   2.064       .  S
Fe561       O574   2.058       .  S
Fe561       O572   1.971       .  S
Fe562       O565   2.051       .  S
Fe562       O569   2.115       .  S
Fe562      O1693   2.067       .  S
Fe562      O1698   2.117   1_455  S
Fe562       O572   1.971       .  S
Fe563       O581   2.092       .  S
Fe563      O1688   2.011   1_455  S
Fe563       O575   2.047       .  S
Fe563       O572   1.960       .  S
O564        C571   1.276       .  A
O565        C579   1.267       .  A
O566        C571   1.277       .  A
O567        C570   1.264       .  A
O568      Fe1683   2.009       .  S
O568        C580   1.265       .  A
O569        C582   1.286       .  A
C570        O575   1.260       .  A
C571       C1106   1.481       .  S
O573      Fe1682   2.064       .  S
O573       C1696   1.262       .  A
O574        C576   1.261       .  A
C576       O1693   1.262       .  A
C576       C1026   1.489       .  S
O577        C582   1.280       .  A
O578      Fe1682   2.100       .  S
O578        C580   1.275       .  A
C579        O581   1.270       .  A
C579       C1090   1.503   1_455  S
C580       C1077   1.480       .  S
C582       C1045   1.503       .  S
Fe583       O599   2.099       .  S
Fe583       O589   2.064       .  S
Fe583       O596   2.070       .  S
Fe583       O588   2.093       .  S
Fe583       O594   1.975       .  S
Fe584       O587   2.052       .  S
Fe584       O591   2.086       .  S
Fe584       O595   2.056       .  S
Fe584       O600   2.093       .  S
Fe584       O594   1.977       .  S
Fe585       O603   2.089       .  S
Fe585       O590   2.021       .  S
Fe585       O597   2.050       .  S
Fe585       O586   2.067       .  S
Fe585       O594   1.970       .  S
O586        C593   1.272       .  A
O587        C601   1.266       .  A
O588        C593   1.277       .  A
O589        C592   1.266       .  A
O590        C602   1.262       .  A
O591        C604   1.279       .  A
C592        O597   1.261       .  A
C592        C962   1.467       .  S
C593       C1010   1.486       .  S
O595        C598   1.263       .  A
O596        C598   1.263       .  A
C598        C949   1.501       .  S
O599        C604   1.280       .  A
O600        C602   1.274       .  A
C601        O603   1.270       .  A
C601        C994   1.500       .  S
C602        C978   1.467       .  S
C604       C1042   1.498       .  S
Fe605       O621   2.098       .  S
Fe605       O611   2.060       .  S
Fe605       O618   2.064       .  S
Fe605       O610   2.087       .  S
Fe605       O616   1.965       .  S
Fe606       O609   2.050       .  S
Fe606       O613   2.091       .  S
Fe606       O617   2.053       .  S
Fe606       O622   2.082       .  S
Fe606       O616   1.961       .  S
Fe607       O625   2.068       .  S
Fe607       O612   2.057       .  S
Fe607       O619   2.061       .  S
Fe607       O608   2.047       .  S
Fe607       O616   1.968       .  S
O608        C615   1.271       .  A
O609        C623   1.264       .  A
O610        C615   1.277       .  A
O611        C614   1.263       .  A
O612        C624   1.271       .  A
O613        C626   1.280       .  A
C614        O619   1.263       .  A
C614        C882   1.472       .  S
C615        C930   1.479       .  S
O617        C620   1.257       .  A
O618        C620   1.262       .  A
C620        C946   1.499       .  S
O621        C626   1.286       .  A
O622        C624   1.273       .  A
C623        O625   1.265       .  A
C623        C914   1.473       .  S
C624        C901   1.479       .  S
C626        C866   1.519       .  S
Fe627       O643   2.104       .  S
Fe627      O1753   2.050       .  S
Fe627       O640   2.067       .  S
Fe627      O1752   2.094       .  S
Fe627       O638   1.972       .  S
Fe628       O631   2.047       .  S
Fe628       O635   2.083       .  S
Fe628       O638   1.965       .  S
Fe629       O647   2.083       .  S
Fe629       O641   2.077       .  S
Fe629      O1750   2.052       .  S
Fe629       O638   1.979       .  S
O630      Fe1749   2.052   1_455  S
O630        C637   1.272       .  A
O631        C645   1.267       .  A
O632      Fe1747   2.083   1_455  S
O632        C637   1.277       .  A
O633      Fe1747   2.066   1_455  S
O633       C1756   1.264   1_455  A
O634        C646   1.268       .  A
O635        C648   1.275       .  A
C636       O1753   1.262       .  A
C636        O641   1.267       .  A
C636       C1938   1.479       .  S
C637        C837   1.478       .  S
O640        C642   1.262       .  A
C642       C1029   1.488       .  S
O643        C648   1.284       .  A
O644        C646   1.276       .  A
C645        O647   1.268       .  A
C646        C802   1.466       .  S
C648        C869   1.520       .  S
Fe649       O665   2.100       .  S
Fe649       O655   2.039       .  S
Fe649       O662   2.058       .  S
Fe649       O654   2.103       .  S
Fe649       O660   1.963       .  S
Fe650      O1773   2.047   1_655  S
Fe650      O1777   2.094       .  S
Fe650       O661   2.064   1_655  S
Fe650       O666   2.084   1_655  S
Fe650      O1780   1.972       .  S
Fe651       O669   2.073       .  S
Fe651      O1776   2.054       .  S
Fe651       O663   2.072       .  S
Fe651       O652   2.060       .  S
Fe651       O660   1.976       .  S
O652        C659   1.268       .  A
O653      Fe1770   2.043       .  S
O653        C667   1.260       .  A
O654        C659   1.275       .  A
O655        C658   1.268       .  A
O656      Fe1771   2.056   1_455  S
O656        C668   1.273       .  A
O657      Fe1770   2.074       .  S
O657        C670   1.274       .  A
C658        O663   1.268       .  A
C658        C981   1.487       .  S
C659       C1093   1.488       .  S
O660      Fe1770   1.972       .  S
O661       C1784   1.261   1_455  A
O662        C664   1.261       .  A
C664       O1781   1.260       .  A
C664        C770   1.486       .  S
O665        C670   1.281       .  A
O666        C668   1.278       .  A
C667        O669   1.264       .  A
C667       C2229   1.473       .  S
C668        C965   1.474       .  S
C670        C786   1.513       .  S
Fe671       O687   2.080       .  S
Fe671       O677   2.053       .  S
Fe671       O684   2.058       .  S
Fe671       O682   1.969       .  S
Fe672       O675   2.076       .  S
Fe672       O679   2.093       .  S
Fe672       O683   2.083       .  S
Fe672       O688   2.083       .  S
Fe672       O682   1.980       .  S
Fe673       O691   2.061       .  S
Fe673       O678   2.050       .  S
Fe673       O685   2.067       .  S
Fe673       O682   1.977       .  S
O674        C681   1.266       .  A
O675        C689   1.268       .  A
O676        C681   1.280       .  A
O677        C680   1.266       .  A
O678        C690   1.271       .  A
O679        C692   1.277       .  A
C680        O685   1.266       .  A
C680       C1074   1.476       .  S
C681        C997   1.485       .  S
O683        C686   1.267       .  A
O684        C686   1.261       .  A
C686        C754   1.501       .  S
O687        C692   1.279       .  A
O688        C690   1.275       .  A
C689        O691   1.264       .  A
C689       C1013   1.478       .  S
C690       C1058   1.476       .  S
C692        C789   1.514       .  S
Fe693       O709   2.075       .  S
Fe693       O699   2.050       .  S
Fe693       O706   2.053       .  S
Fe693      O1818   2.072   1_455  S
Fe693       O704   1.968       .  S
Fe694       O697   2.044       .  S
Fe694       O701   2.111       .  S
Fe694       O705   2.059       .  S
Fe694       O710   2.100       .  S
Fe694       O704   1.969       .  S
Fe695       O713   2.063       .  S
Fe695       O700   2.048       .  S
Fe695       O707   2.070       .  S
Fe695      O1816   2.059   1_455  S
Fe695       O704   1.976       .  S
O696      Fe1815   2.059       .  S
O696        C703   1.269       .  A
O697        C711   1.262       .  A
O698      Fe1813   2.077       .  S
O698        C703   1.273       .  A
O699        C702   1.266       .  A
O700        C712   1.271       .  A
O701        C714   1.285       .  A
C702        O707   1.266       .  A
C702        C805   1.486       .  S
C703        C917   1.471       .  S
O705        C708   1.260       .  A
O706        C708   1.260       .  A
C708        C773   1.476       .  S
O709        C714   1.275       .  A
O710        C712   1.279       .  A
C711        O713   1.264       .  A
C711        C933   1.467       .  S
C712        C821   1.491       .  S
C714        C738   1.515       .  S
Fe715       O731   2.120       .  S
Fe715       O721   2.035       .  S
Fe715       O728   2.052       .  S
Fe715       O720   2.115       .  S
Fe715       O726   1.950       .  S
Fe716       O719   2.064       .  S
Fe716       O723   2.071       .  S
Fe716       O726   1.960       .  S
Fe717       O735   2.060       .  S
Fe717       O729   2.089       .  S
Fe717       O718   2.036       .  S
Fe717       O726   1.962       .  S
O718        C725   1.267       .  A
O719        C733   1.264       .  A
O720        C725   1.281       .  A
O721        C724   1.258       .  A
O722        C734   1.273       .  A
O723        C736   1.281       .  A
C724        O729   1.272       .  A
C724        C898   1.494       .  S
C725        C850   1.481       .  S
O728        C730   1.258       .  A
C730        C757   1.473       .  S
O731        C736   1.285       .  A
O732        C734   1.278       .  A
C733        O735   1.263       .  A
C734        C885   1.478       .  S
C736        C741   1.519       .  S
C737        C738   1.410       .  A
C737        C742   1.418       .  A
C737        H744   1.082       .  S
C738        C739   1.430       .  A
C739        C740   1.412       .  A
C739        C746   1.525       .  S
C740        C741   1.409       .  A
C740        H745   1.080       .  S
C741        C742   1.427       .  A
C742        C743   1.518       .  S
C743        F747   1.385       .  S
C743        F748   1.383       .  S
C743        F749   1.381       .  S
C746        F750   1.383       .  S
C746        F751   1.383       .  S
C746        F752   1.385       .  S
C753        C754   1.408       .  A
C753        C758   1.414   1_556  A
C753        H760   1.083       .  S
C755        C756   1.408   1_556  A
C755        C762   1.518       .  S
C756        C757   1.401       .  A
C756        H761   1.083       .  S
C758        C759   1.520       .  S
C759        F763   1.385       .  S
C759        F764   1.382       .  S
C759        F765   1.384       .  S
C762        F766   1.383       .  S
C762        F767   1.382       .  S
C762        F768   1.385   1_556  S
C769       C1890   1.404       .  A
C769        C774   1.410   1_656  A
C769        H776   1.083       .  S
C770       C1889   1.407       .  A
C770        C771   1.419       .  A
C771        C772   1.405   1_556  A
C771        C778   1.521       .  S
C772       C1893   1.405       .  A
C772        H777   1.083       .  S
C773       C1892   1.402       .  A
C773        C774   1.416       .  A
C774        C775   1.519   1_455  S
C775        F779   1.385       .  S
C775        F780   1.382   1_655  S
C775        F781   1.384       .  S
C778        F782   1.383       .  S
C778        F783   1.382       .  S
C778        F784   1.385       .  S
C785        C786   1.411       .  A
C785        C790   1.415       .  A
C785        H792   1.082       .  S
C786        C787   1.427       .  A
C787        C788   1.412       .  A
C787        C794   1.523       .  S
C788        C789   1.410       .  A
C788        H793   1.081       .  S
C789        C790   1.428       .  A
C790        C791   1.522       .  S
C791        F795   1.385       .  S
C791        F796   1.382       .  S
C791        F797   1.383       .  S
C794        F798   1.383       .  S
C794        F799   1.383       .  S
C794        F800   1.385       .  S
C801        C802   1.407       .  A
C801        C806   1.413       .  A
C801        H808   1.084       .  S
C802       C1923   1.409       .  A
C803       C1922   1.409       .  A
C803        C804   1.394       .  A
C803        C810   1.518       .  S
C804        C805   1.405   1_655  A
C804        H809   1.081       .  S
C805       C1926   1.420       .  A
C806       C1925   1.416       .  A
C806        C807   1.517       .  S
C807        F811   1.385       .  S
C807        F812   1.382       .  S
C807        F813   1.384       .  S
C810        F814   1.381       .  S
C810        F815   1.382       .  S
C810        F816   1.385       .  S
C817        C818   1.407       .  A
C817        C822   1.416       .  A
C817        H824   1.083       .  S
C818       C1756   1.479   1_455  S
C818        C819   1.409   1_455  A
C819        C820   1.403       .  A
C819       C1946   1.516       .  S
C820        C821   1.408   1_655  A
C820        H825   1.083       .  S
C821        C822   1.419       .  A
C822        C823   1.517       .  S
C823        F827   1.384       .  S
C823        F828   1.383       .  S
C823        F829   1.384       .  S
C826       C1939   1.517       .  S
C826       F1950   1.381       .  S
C826        F831   1.383       .  S
C826        F832   1.383       .  S
F830       C1946   1.379       .  S
C833        C834   1.404   1_565  A
C833        C838   1.408       .  A
C833        H840   1.084       .  S
C835        C842   1.515       .  S
C836        C837   1.410   1_545  A
C837        C838   1.414       .  A
C838        C839   1.516       .  S
C839        F843   1.385       .  S
C839        F844   1.383       .  S
C839        F845   1.383       .  S
C842        F846   1.381       .  S
C842        F847   1.383       .  S
C842        F848   1.383       .  S
C849        C854   1.422   1_545  A
C849        H856   1.083       .  S
C850        C851   1.417       .  A
C851        C852   1.392       .  A
C851        C858   1.519       .  S
C852        C853   1.402       .  A
C852        H857   1.083       .  S
C854        C855   1.515       .  S
C855        F859   1.384       .  S
C855        F860   1.383       .  S
C855        F861   1.383       .  S
C858        F862   1.376       .  S
C858        F863   1.385       .  S
C858        F864   1.383       .  S
C865        C866   1.410       .  A
C865        C870   1.415       .  A
C865        H872   1.081       .  S
C866        C867   1.429       .  A
C867        C868   1.416       .  A
C867        C874   1.523       .  S
C868        C869   1.409       .  A
C868        H873   1.079       .  S
C869        C870   1.430       .  A
C870        C871   1.523       .  S
C871        F875   1.385       .  S
C871        F876   1.383       .  S
C871        F877   1.384       .  S
C874        F878   1.383       .  S
C874        F879   1.383       .  S
C874        F880   1.385       .  S
C881        C882   1.404       .  A
C881        C886   1.408       .  A
C881        H888   1.083       .  S
C882        C883   1.410       .  A
C883        C884   1.406       .  A
C883        C890   1.517       .  S
C884        C885   1.408       .  A
C884        H889   1.084       .  S
C885        C886   1.414       .  A
C886        C887   1.517       .  S
C887        F891   1.384       .  S
C887        F892   1.383       .  S
C887        F893   1.384       .  S
C890        F894   1.383       .  S
C890        F895   1.383       .  S
C890        F896   1.385       .  S
C897        C898   1.410       .  A
C897        C902   1.415       .  A
C897        H904   1.083       .  S
C898        C899   1.432       .  A
C899        C900   1.399       .  A
C899        C906   1.529       .  S
C900        C901   1.396       .  A
C900        H905   1.084       .  S
C901        C902   1.415       .  A
C902        C903   1.516       .  S
C903        F907   1.384       .  S
C903        F908   1.383       .  S
C903        F909   1.383       .  S
C906        F910   1.382       .  S
C906        F911   1.381       .  S
C906        F912   1.385       .  S
C913        C914   1.403       .  A
C913        C918   1.399       .  A
C913        H920   1.084       .  S
C914        C915   1.413       .  A
C915        C916   1.412       .  A
C915        C922   1.516       .  S
C916        C917   1.407       .  A
C916        H921   1.084       .  S
C917        C918   1.410       .  A
C918        C919   1.513       .  S
C919        F923   1.383       .  S
C919        F924   1.383       .  S
C919        F925   1.385       .  S
C922        F926   1.383       .  S
C922        F927   1.383       .  S
C922        F928   1.385       .  S
C929        C930   1.409       .  A
C929        C934   1.401       .  A
C929        H936   1.083       .  S
C930        C931   1.414       .  A
C931        C932   1.409       .  A
C931        C938   1.517       .  S
C932        C933   1.405       .  A
C932        H937   1.084       .  S
C933        C934   1.409       .  A
C934        C935   1.519       .  S
C935        F939   1.385       .  S
C935        F940   1.382       .  S
C935        F941   1.383       .  S
C938        F942   1.384       .  S
C938        F943   1.382       .  S
C938        F944   1.385       .  S
C945        C946   1.408       .  A
C945        C950   1.411       .  A
C945        H952   1.082       .  S
C946        C947   1.424       .  A
C947        C948   1.410       .  A
C947        C954   1.523       .  S
C948        C949   1.408       .  A
C948        H953   1.082       .  S
C949        C950   1.423       .  A
C950        C951   1.520       .  S
C951        F955   1.385       .  S
C951        F956   1.383       .  S
C951        F957   1.383       .  S
C954        F958   1.383       .  S
C954        F959   1.384       .  S
C954        F960   1.385       .  S
C961        C962   1.394       .  A
C961        C966   1.400       .  A
C961        H968   1.085       .  S
C962        C963   1.418       .  A
C963        C964   1.405       .  A
C963        C970   1.512       .  S
C964        C965   1.397       .  A
C964        H969   1.083       .  S
C965        C966   1.420       .  A
C966        C967   1.511       .  S
C967        F971   1.385       .  S
C967        F972   1.382       .  S
C967        F973   1.381       .  S
C970        F974   1.377       .  S
C970        F975   1.383       .  S
C970        F976   1.385       .  S
C977        C978   1.406       .  A
C977        C982   1.418       .  A
C977        H984   1.082       .  S
C978        C979   1.411       .  A
C979        C980   1.385       .  A
C979        C986   1.521       .  S
C980        C981   1.403       .  A
C980        H985   1.081       .  S
C981        C982   1.421       .  A
C982        C983   1.516       .  S
C983        F987   1.385       .  S
C983        F988   1.382       .  S
C983        F989   1.384       .  S
C986        F990   1.378       .  S
C986        F991   1.381       .  S
C986        F992   1.384       .  S
C993        C994   1.407       .  A
C993        C998   1.398       .  A
C993       H1000   1.081       .  S
C994        C995   1.422       .  A
C995        C996   1.421       .  A
C995       C1002   1.516       .  S
C996        C997   1.408       .  A
C996       H1001   1.082       .  S
C997        C998   1.411       .  A
C998        C999   1.515       .  S
C999       F1003   1.385       .  S
C999       F1004   1.379       .  S
C999       F1005   1.381       .  S
C1002      F1006   1.384       .  S
C1002      F1007   1.384       .  S
C1002      F1008   1.383       .  S
C1009      C1010   1.403       .  A
C1009      C1014   1.411       .  A
C1009      H1016   1.081       .  S
C1010      C1011   1.419       .  A
C1011      C1012   1.405       .  A
C1011      C1018   1.515       .  S
C1012      C1013   1.399       .  A
C1012      H1017   1.084       .  S
C1013      C1014   1.417       .  A
C1014      C1015   1.517       .  S
C1015      F1019   1.385       .  S
C1015      F1020   1.383       .  S
C1015      F1021   1.383       .  S
C1018      F1022   1.383       .  S
C1018      F1023   1.382       .  S
C1018      F1024   1.384       .  S
C1025      C2150   1.412   1_455  A
C1025      H1032   1.083       .  S
C1026      C1027   1.417       .  A
C1027      C2148   1.409   1_455  A
C1027      C1034   1.519       .  S
C1028      C2147   1.409       .  A
C1028      H1033   1.082       .  S
C1029      C1030   1.419       .  A
C1030      C2145   1.411       .  A
C1030      C1031   1.519       .  S
C1031      F2155   1.385       .  S
C1031      F2156   1.383       .  S
C1031      F1037   1.384       .  S
C1034      F1038   1.383       .  S
C1034      F2159   1.383   1_455  S
C1034      F2160   1.385   1_455  S
F1035      C2151   1.385       .  S
F1036      C2151   1.382   1_455  S
F1039      C2154   1.383       .  S
F1040      C2154   1.385       .  S
C1041      C1042   1.403       .  A
C1041      C1046   1.409       .  A
C1041      H1048   1.083       .  S
C1042      C1043   1.420       .  A
C1043      C1044   1.420       .  A
C1043      C1050   1.516       .  S
C1044      C1045   1.409       .  A
C1044      H1049   1.083       .  S
C1045      C1046   1.425       .  A
C1046      C1047   1.520       .  S
C1047      F1051   1.385       .  S
C1047      F1052   1.382       .  S
C1047      F1053   1.383       .  S
C1050      F1054   1.383       .  S
C1050      F1055   1.382       .  S
C1050      F1056   1.384       .  S
C1057      C1058   1.400       .  A
C1057      C1062   1.409       .  A
C1057      H1064   1.083       .  S
C1058      C1059   1.417   1_565  A
C1060      H1065   1.083       .  S
C1061      C1062   1.421   1_545  A
C1062      C1063   1.515       .  S
C1063      F1067   1.385       .  S
C1063      F1068   1.377       .  S
C1063      F1069   1.383       .  S
C1066      F1071   1.383       .  S
C1066      F1072   1.384       .  S
C1073      C1078   1.417       .  A
C1073      H1080   1.083       .  S
C1074      C1075   1.410       .  A
C1075      C1082   1.518       .  S
C1076      C1077   1.400       .  A
C1076      H1081   1.084       .  S
C1077      C1078   1.411       .  A
C1078      C1079   1.514       .  S
C1079      F1083   1.384       .  S
C1079      F1084   1.383       .  S
C1079      F1085   1.383       .  S
C1082      F1086   1.384       .  S
C1082      F1088   1.384       .  S
C1089      C2210   1.403       .  A
C1089      C1094   1.396       .  A
C1089      H1096   1.083       .  S
C1090      C2209   1.408       .  A
C1090      C1091   1.424   1_655  A
C1091      C2212   1.423   1_455  A
C1091      C1098   1.515       .  S
C1092      C2211   1.420       .  A
C1092      C1093   1.407       .  A
C1092      H2217   1.081       .  S
C1093      C1094   1.412       .  A
C1094      C1095   1.510       .  S
C1095      F1099   1.385       .  S
C1095      F1100   1.381       .  S
C1095      F1101   1.377       .  S
H1097      C2212   1.082   1_455  S
C1098      F1102   1.383       .  S
C1098      F1103   1.383       .  S
C1098      F1104   1.385       .  S
C1105      C1106   1.401       .  A
C1105      C1110   1.406       .  A
C1105      H1112   1.082       .  S
C1106      C1107   1.419   1_455  A
C1107      C2228   1.408       .  A
C1107      C2234   1.514       .  S
C1108      C2227   1.407       .  A
C1108      C2229   1.399       .  A
C1108      H1113   1.085       .  S
C1109      C1787   1.477       .  S
C1109      C2228   1.400   1_455  A
C1109      C1110   1.419       .  A
C1110      C1111   1.520       .  S
C1111      F1115   1.385       .  S
C1111      F1116   1.384       .  S
C1111      F1117   1.382       .  S
C1114      C2227   1.514       .  S
C1114      F1118   1.383       .  S
C1114      F2239   1.382       .  S
C1114      F1120   1.379       .  S
F1119      C2234   1.382       .  S
Fe1121     O1137   2.087       .  S
Fe1121     O1127   2.059       .  S
Fe1121     O1134   2.067       .  S
Fe1121     O1686   2.087   1_545  S
Fe1121     O1132   1.947       .  S
Fe1122     O1125   2.089       .  S
Fe1122     O1129   2.085       .  S
Fe1122     O1132   1.948       .  S
Fe1123     O1141   2.074       .  S
Fe1123     O1135   2.063       .  S
Fe1123     O1684   2.075   1_545  S
Fe1123     O1132   1.959       .  S
O1124     Fe1683   2.064       .  S
O1124      C1131   1.270       .  A
O1125      C1139   1.278       .  A
O1126     Fe1681   2.099       .  S
O1126      C1131   1.280       .  A
O1127      C1130   1.266       .  A
O1128      C1140   1.263       .  A
O1129      C1142   1.281       .  A
C1130      O1135   1.262       .  A
C1130      C2181   1.474       .  S
C1131      C1666   1.492       .  S
O1134      C1136   1.265       .  A
C1136      C1586   1.490       .  S
O1137      C1142   1.276       .  A
O1138      C1140   1.274       .  A
C1139      O1141   1.273       .  A
C1139      C1650   1.496       .  S
C1140      C1637   1.488       .  S
C1142      C1605   1.510       .  S
Fe1143     O1159   2.089       .  S
Fe1143     O1149   2.066       .  S
Fe1143     O1156   2.072       .  S
Fe1143     O1148   2.073       .  S
Fe1143     O1154   1.974       .  S
Fe1144     O1147   2.034       .  S
Fe1144     O1151   2.080       .  S
Fe1144     O1155   2.039       .  S
Fe1144     O1160   2.087       .  S
Fe1144     O1154   1.968       .  S
Fe1145     O1163   2.092       .  S
Fe1145     O1150   2.031       .  S
Fe1145     O1157   2.053       .  S
Fe1145     O1146   2.064       .  S
Fe1145     O1154   1.970       .  S
O1146      C1153   1.270       .  A
O1147      C1161   1.263       .  A
O1148      C1153   1.271       .  A
O1149      C1152   1.268       .  A
O1150      C1162   1.266       .  A
O1151      C1164   1.278       .  A
C1152      O1157   1.264       .  A
C1152      C1522   1.467       .  S
C1153      C1570   1.478       .  S
O1155      C1158   1.255       .  A
O1156      C1158   1.265       .  A
C1158      C1509   1.495       .  S
O1159      C1164   1.277       .  A
O1160      C1162   1.274       .  A
C1161      O1163   1.269       .  A
C1161      C1554   1.501       .  S
C1162      C1538   1.464       .  S
C1164      C1602   1.510       .  S
Fe1165     O1181   2.091       .  S
Fe1165     O1171   2.045       .  S
Fe1165     O1178   2.039       .  S
Fe1165     O1170   2.089       .  S
Fe1165     O1176   1.964       .  S
Fe1166     O1169   2.077       .  S
Fe1166     O1173   2.077       .  S
Fe1166     O1177   2.073       .  S
Fe1166     O1182   2.078       .  S
Fe1166     O1176   1.966       .  S
Fe1167     O1185   2.072       .  S
Fe1167     O1172   2.053       .  S
Fe1167     O1179   2.077       .  S
Fe1167     O1168   2.046       .  S
Fe1167     O1176   1.964       .  S
O1168      C1175   1.270       .  A
O1169      C1183   1.272       .  A
O1170      C1175   1.277       .  A
O1171      C1174   1.260       .  A
O1172      C1184   1.270       .  A
O1173      C1186   1.275       .  A
C1174      O1179   1.266       .  A
C1174      C1442   1.480       .  S
C1175      C1490   1.476       .  S
O1177      C1180   1.267       .  A
O1178      C1180   1.255       .  A
C1180      C1506   1.498       .  S
O1181      C1186   1.282       .  A
O1182      C1184   1.270       .  A
C1183      O1185   1.270       .  A
C1183      C1474   1.484       .  S
C1184      C1461   1.483       .  S
C1186      C1426   1.511       .  S
Fe1187     O1203   2.086       .  S
Fe1187     O1200   2.082       .  S
Fe1187     O1198   1.967       .  S
Fe1188     O1191   2.036       .  S
Fe1188     O1195   2.084       .  S
Fe1188     O1759   2.046       .  S
Fe1188     O1764   2.083       .  S
Fe1188     O1198   1.956       .  S
Fe1189     O1207   2.079       .  S
Fe1189     O1754   2.046       .  S
Fe1189     O1201   2.059       .  S
Fe1189     O1198   1.972       .  S
O1190      C1197   1.271       .  A
O1191      C1205   1.265       .  A
O1192      C1197   1.271       .  A
O1194     Fe1749   2.063   1_545  S
O1194      C1206   1.270       .  A
O1195      C1208   1.275       .  A
C1196      O1201   1.264       .  A
C1197      C1397   1.475       .  S
O1199     Fe1748   2.062       .  S
O1199      C1762   1.261       .  A
O1200      C1202   1.265       .  A
C1202      O1759   1.260       .  A
C1202      C1589   1.496       .  S
O1203      C1208   1.280       .  A
O1204     Fe1748   2.094   1_545  S
O1204      C1206   1.276       .  A
C1205      O1207   1.267       .  A
C1205      C1973   1.489       .  S
C1206      C1362   1.480       .  S
C1208      C1429   1.512       .  S
Fe1209     O1225   2.099       .  S
Fe1209     O1215   2.039       .  S
Fe1209     O1222   2.056       .  S
Fe1209     O1214   2.106       .  S
Fe1209     O1220   1.970       .  S
Fe1210     O1221   2.071       .  S
Fe1210     O1226   2.078       .  S
Fe1211     O1229   2.076       .  S
Fe1211     O1223   2.076       .  S
Fe1211     O1212   2.069       .  S
Fe1211     O1220   1.985       .  S
O1212      C1219   1.269       .  A
O1213      C1227   1.265       .  A
O1214      C1219   1.276       .  A
O1215      C1218   1.267       .  A
O1216      C1228   1.270       .  A
O1217      C1230   1.277       .  A
C1218      O1223   1.268       .  A
C1218      C1541   1.487       .  S
C1219      C1653   1.492       .  S
O1222      C1224   1.261       .  A
C1224      C1330   1.496       .  S
O1225      C1230   1.280       .  A
O1226      C1228   1.273       .  A
C1227      O1229   1.267       .  A
C1228      C1525   1.471       .  S
C1230      C1346   1.526       .  S
Fe1231     O1247   2.107       .  S
Fe1231     O1237   2.032       .  S
Fe1231     O1244   2.046       .  S
Fe1231     O1796   2.089       .  S
Fe1231     O1242   1.962       .  S
Fe1232     O1235   2.059       .  S
Fe1232     O1239   2.090       .  S
Fe1232     O1243   2.072       .  S
Fe1232     O1248   2.080       .  S
Fe1232     O1242   1.974       .  S
Fe1233     O1251   2.056       .  S
Fe1233     O1238   2.047       .  S
Fe1233     O1245   2.076       .  S
Fe1233     O1794   2.047       .  S
Fe1233     O1242   1.980       .  S
O1234     Fe1793   2.047   1_545  S
O1234      C1241   1.266       .  A
O1235      C1249   1.265       .  A
O1236     Fe1791   2.093   1_545  S
O1236      C1241   1.272       .  A
O1237      C1240   1.262       .  A
O1238      C1250   1.269       .  A
O1239      C1252   1.276       .  A
C1240      O1245   1.266       .  A
C1240      C1634   1.479       .  S
C1241      C1557   1.480       .  S
O1243      C1246   1.263       .  A
O1244      C1246   1.261       .  A
C1246      C1314   1.499       .  S
O1247      C1252   1.283       .  A
O1248      C1250   1.275       .  A
C1249      O1251   1.263       .  A
C1249      C1573   1.467       .  S
C1250      C1618   1.469       .  S
C1252      C1349   1.525       .  S
Fe1253     O1269   2.077       .  S
Fe1253     O1259   2.059       .  S
Fe1253     O1266   2.056       .  S
Fe1253     O1264   1.965       .  S
Fe1254     O1257   2.050       .  S
Fe1254     O1261   2.117       .  S
Fe1254     O1265   2.059       .  S
Fe1254     O1270   2.099       .  S
Fe1254     O1264   1.970       .  S
Fe1255     O1273   2.062       .  S
Fe1255     O1260   2.041       .  S
Fe1255     O1267   2.069       .  S
Fe1255     O1264   1.979       .  S
O1256      C1263   1.269       .  A
O1257      C1271   1.263       .  A
O1258      C1263   1.278       .  A
O1259      C1262   1.270       .  A
O1260      C1272   1.270       .  A
O1261      C1274   1.285       .  A
C1262      O1267   1.267       .  A
C1262      C1365   1.487       .  S
C1263      C1477   1.486       .  S
O1265      C1268   1.260       .  A
O1266      C1268   1.262       .  A
C1268      C1333   1.482       .  S
O1269      C1274   1.275       .  A
O1270      C1272   1.279       .  A
C1271      O1273   1.263       .  A
C1271      C1493   1.468       .  S
C1272      C1381   1.487       .  S
C1274      C1298   1.515       .  S
Fe1275     O1291   2.107       .  S
Fe1275     O1281   2.028       .  S
Fe1275     O1288   2.052       .  S
Fe1275     O1280   2.108       .  S
Fe1275     O1286   1.952       .  S
Fe1276     O1279   2.082       .  S
Fe1276     O1283   2.081       .  S
Fe1276     O1847   2.091       .  S
Fe1276     O1852   2.074   1_545  S
Fe1276     O1286   1.959       .  S
Fe1277     O1295   2.062       .  S
Fe1277     O1842   2.074   1_545  S
Fe1277     O1289   2.092       .  S
Fe1277     O1278   2.029       .  S
Fe1277     O1286   1.963       .  S
O1278      C1285   1.266       .  A
O1279      C1293   1.270       .  A
O1280      C1285   1.280       .  A
O1281      C1284   1.256       .  A
O1282     Fe1837   2.075       .  S
O1282      C1294   1.275       .  A
O1283      C1296   1.282       .  A
C1284      O1289   1.270       .  A
C1284      C1458   1.495       .  S
C1285      C1410   1.471       .  S
O1287     Fe1836   2.063       .  S
O1287      C1850   1.263       .  A
O1288      C1290   1.258       .  A
C1290      O1847   1.269       .  A
C1290      C1317   1.502       .  S
O1291      C1296   1.281       .  A
O1292     Fe1836   2.077       .  S
O1292      C1294   1.275       .  A
C1293      O1295   1.266       .  A
C1293      C1954   1.479       .  S
C1294      C1445   1.486       .  S
C1296      C1301   1.517       .  S
C1297      C1298   1.409       .  A
C1297      C1302   1.420       .  A
C1297      H1304   1.083       .  S
C1298      C1299   1.429       .  A
C1299      C1300   1.412       .  A
C1299      C1306   1.523       .  S
C1300      C1301   1.408       .  A
C1300      H1305   1.081       .  S
C1301      C1302   1.427       .  A
C1302      C1303   1.518       .  S
C1303      F1307   1.385       .  S
C1303      F1308   1.384       .  S
C1303      F1309   1.380       .  S
C1306      F1310   1.383       .  S
C1306      F1311   1.382       .  S
C1306      F1312   1.385       .  S
C1313      C1314   1.408       .  A
C1313      C1318   1.408   1_556  A
C1313      H1320   1.082       .  S
C1314      C1875   1.421       .  A
C1315      C1874   1.423       .  A
C1315      C1316   1.412   1_566  A
C1315      C1322   1.521       .  S
C1316      C1317   1.405       .  A
C1316      H1321   1.083       .  S
C1317      C1878   1.427       .  A
C1318      C1877   1.426       .  A
C1318      C1319   1.524       .  S
C1319      F1323   1.385       .  S
C1319      F1324   1.384       .  S
C1319      F1325   1.383       .  S
C1322      F1326   1.382       .  S
C1322      F1327   1.384   1_565  S
C1322      F1328   1.384       .  S
C1329      C1334   1.410   1_556  A
C1329      H1336   1.083       .  S
C1330      C1331   1.424       .  A
C1331      C1332   1.407   1_556  A
C1331      C1338   1.522       .  S
C1332      H1337   1.082       .  S
C1333      C1334   1.419       .  A
C1334      C1335   1.520       .  S
C1335      F1339   1.384       .  S
C1335      F1340   1.382       .  S
C1335      F1341   1.384       .  S
C1338      F1342   1.383       .  S
C1338      F1343   1.383       .  S
C1338      F1344   1.385       .  S
C1345      C1346   1.412       .  A
C1345      C1350   1.419       .  A
C1345      H1352   1.081       .  S
C1346      C1347   1.430       .  A
C1347      C1348   1.419       .  A
C1347      C1354   1.520       .  S
C1348      C1349   1.410       .  A
C1348      H1353   1.081       .  S
C1349      C1350   1.431       .  A
C1350      C1351   1.522       .  S
C1351      F1355   1.385       .  S
C1351      F1356   1.383       .  S
C1351      F1357   1.384       .  S
C1354      F1358   1.383       .  S
C1354      F1359   1.384       .  S
C1354      F1360   1.385       .  S
C1361      C1362   1.407   1_455  A
C1361      C1366   1.418       .  A
C1361      H1368   1.083       .  S
C1363      C1364   1.393       .  A
C1363      C1370   1.517       .  S
C1364      C1365   1.403       .  A
C1364      H1369   1.080       .  S
C1366      C1367   1.515       .  S
C1367      F1371   1.384       .  S
C1367      F1372   1.383       .  S
C1367      F1373   1.383       .  S
C1370      F1374   1.381       .  S
C1370      F1375   1.381       .  S
C1370      F1376   1.385       .  S
C1377      C1378   1.405       .  A
C1377      C1382   1.411       .  A
C1377      H1384   1.084       .  S
C1378      C1379   1.408       .  A
C1379      C1380   1.403       .  A
C1380      C1381   1.410       .  A
C1380      H1385   1.083       .  S
C1381      C1382   1.418       .  A
C1382      C1383   1.517       .  S
C1383      F1387   1.385       .  S
C1383      F1388   1.382       .  S
C1383      F1389   1.383       .  S
C1386      F1391   1.382       .  S
C1386      F1392   1.383       .  S
C1393      C1394   1.404       .  A
C1393      C1398   1.408       .  A
C1393      H1400   1.084       .  S
C1394      C1853   1.461       .  S
C1394      C1955   1.409       .  A
C1395      C1954   1.413       .  A
C1395      C1956   1.410       .  A
C1395      C1402   1.517       .  S
C1396      C1955   1.398       .  A
C1396      C1397   1.407       .  A
C1396      H1961   1.082       .  S
C1397      C1398   1.414       .  A
C1398      C1399   1.517       .  S
C1399      F1403   1.385       .  S
C1399      F1404   1.384       .  S
C1399      F1405   1.382       .  S
H1401      C1956   1.084       .  S
C1402      F1406   1.382       .  S
C1402      F1407   1.383       .  S
C1402      F1408   1.384       .  S
C1409      C1970   1.404       .  A
C1409      C1414   1.416       .  A
C1409      H1416   1.083       .  S
C1410      C1969   1.405       .  A
C1410      C1411   1.412       .  A
C1411      C1412   1.392       .  A
C1411      C1418   1.523       .  S
C1412      C1413   1.407       .  A
C1412      H1417   1.080       .  S
C1413      C1765   1.495   1_545  S
C1413      C1974   1.423   1_545  A
C1414      C1973   1.421       .  A
C1414      C1415   1.515       .  S
C1415      F1419   1.385       .  S
C1415      F1420   1.383       .  S
C1415      F1421   1.382       .  S
C1418      F1422   1.379       .  S
C1418      F1423   1.385       .  S
C1418      F1424   1.381       .  S
C1425      C1426   1.407       .  A
C1425      C1430   1.410       .  A
C1425      H1432   1.080       .  S
C1426      C1427   1.427       .  A
C1427      C1428   1.414       .  A
C1427      C1434   1.522       .  S
C1428      C1429   1.409       .  A
C1428      H1433   1.082       .  S
C1429      C1430   1.429       .  A
C1430      C1431   1.523       .  S
C1431      F1435   1.385       .  S
C1431      F1436   1.382       .  S
C1431      F1437   1.384       .  S
C1434      F1438   1.383       .  S
C1434      F1439   1.384       .  S
C1434      F1440   1.385       .  S
C1441      C1442   1.407       .  A
C1441      C1446   1.413       .  A
C1441      H1448   1.083       .  S
C1442      C1443   1.415       .  A
C1443      C1444   1.403       .  A
C1443      C1450   1.520       .  S
C1444      C1445   1.407       .  A
C1444      H1449   1.084       .  S
C1445      C1446   1.418       .  A
C1446      C1447   1.517       .  S
C1447      F1451   1.385       .  S
C1447      F1452   1.383       .  S
C1447      F1453   1.383       .  S
C1450      F1454   1.383       .  S
C1450      F1455   1.381       .  S
C1450      F1456   1.385       .  S
C1457      C1458   1.412       .  A
C1457      C1462   1.417       .  A
C1457      H1464   1.083       .  S
C1458      C1459   1.432       .  A
C1459      C1460   1.395       .  A
C1459      C1466   1.530       .  S
C1460      C1461   1.397       .  A
C1460      H1465   1.083       .  S
C1461      C1462   1.415       .  A
C1462      C1463   1.516       .  S
C1463      F1467   1.384       .  S
C1463      F1468   1.383       .  S
C1463      F1469   1.383       .  S
C1466      F1470   1.381       .  S
C1466      F1471   1.381       .  S
C1466      F1472   1.385       .  S
C1473      C1474   1.404       .  A
C1473      C1478   1.404       .  A
C1473      H1480   1.084       .  S
C1474      C1475   1.414       .  A
C1475      C1476   1.417       .  A
C1475      C1482   1.517       .  S
C1476      C1477   1.410       .  A
C1476      H1481   1.083       .  S
C1477      C1478   1.413       .  A
C1478      C1479   1.514       .  S
C1479      F1483   1.381       .  S
C1479      F1484   1.383       .  S
C1479      F1485   1.385       .  S
C1482      F1486   1.384       .  S
C1482      F1487   1.383       .  S
C1482      F1488   1.384       .  S
C1489      C1490   1.408       .  A
C1489      C1494   1.404       .  A
C1489      H1496   1.083       .  S
C1490      C1491   1.414       .  A
C1491      C1492   1.408       .  A
C1491      C1498   1.517       .  S
C1492      C1493   1.405       .  A
C1492      H1497   1.083       .  S
C1493      C1494   1.406       .  A
C1494      C1495   1.516       .  S
C1495      F1499   1.384       .  S
C1495      F1500   1.383       .  S
C1495      F1501   1.383       .  S
C1498      F1502   1.384       .  S
C1498      F1503   1.383       .  S
C1498      F1504   1.384       .  S
C1505      C1506   1.404       .  A
C1505      C1510   1.406       .  A
C1505      H1512   1.082       .  S
C1506      C1507   1.429       .  A
C1507      C1508   1.409       .  A
C1507      C1514   1.524       .  S
C1508      C1509   1.404       .  A
C1508      H1513   1.082       .  S
C1509      C1510   1.426       .  A
C1510      C1511   1.523       .  S
C1511      F1515   1.385       .  S
C1511      F1516   1.383       .  S
C1511      F1517   1.383       .  S
C1514      F1518   1.383       .  S
C1514      F1519   1.384       .  S
C1514      F1520   1.385       .  S
C1521      C1522   1.394       .  A
C1521      C1526   1.400       .  A
C1521      H1528   1.085       .  S
C1522      C1523   1.417       .  A
C1523      C1524   1.404       .  A
C1523      C1530   1.514       .  S
C1524      C1525   1.398       .  A
C1524      H1529   1.082       .  S
C1525      C1526   1.418       .  A
C1526      C1527   1.510       .  S
C1527      F1531   1.384       .  S
C1527      F1532   1.383       .  S
C1527      F1533   1.380       .  S
C1530      F1534   1.379       .  S
C1530      F1535   1.383       .  S
C1530      F1536   1.385       .  S
C1537      C1538   1.406       .  A
C1537      C1542   1.418       .  A
C1537      H1544   1.082       .  S
C1538      C1539   1.405       .  A
C1539      C1540   1.385       .  A
C1539      C1546   1.517       .  S
C1540      C1541   1.403       .  A
C1540      H1545   1.077       .  S
C1541      C1542   1.421       .  A
C1542      C1543   1.514       .  S
C1543      F1547   1.384       .  S
C1543      F1548   1.383       .  S
C1543      F1549   1.383       .  S
C1546      F1550   1.380       .  S
C1546      F1551   1.379       .  S
C1546      F1552   1.382       .  S
C1553      C1554   1.409       .  A
C1553      C1558   1.392       .  A
C1553      H1560   1.083       .  S
C1554      C1555   1.425       .  A
C1555      C1556   1.422       .  A
C1555      C1562   1.515       .  S
C1556      C1557   1.407       .  A
C1556      H1561   1.082       .  S
C1557      C1558   1.409       .  A
C1558      C1559   1.519       .  S
C1559      F1563   1.385       .  S
C1559      F1564   1.382       .  S
C1559      F1565   1.383       .  S
C1562      F1566   1.385       .  S
C1562      F1567   1.383       .  S
C1562      F1568   1.383       .  S
C1569      C1570   1.402       .  A
C1569      C1574   1.407       .  A
C1569      H1576   1.081       .  S
C1570      C1571   1.418       .  A
C1571      C1572   1.402       .  A
C1571      C1578   1.515       .  S
C1572      C1573   1.397       .  A
C1572      H1577   1.084       .  S
C1573      C1574   1.415       .  A
C1574      C1575   1.516       .  S
C1575      F1579   1.385       .  S
C1575      F1580   1.383       .  S
C1575      F1581   1.381       .  S
C1578      F1582   1.383       .  S
C1578      F1583   1.381       .  S
C1578      F1584   1.385       .  S
C1585      C2146   1.406       .  A
C1585      H1592   1.083       .  S
C1586      C2145   1.406   1_545  A
C1586      C1587   1.420       .  A
C1587      C1594   1.520       .  S
C1588      C2149   1.404   1_445  A
C1588      H1593   1.083       .  S
C1589      C2148   1.409       .  A
C1589      C1590   1.422   1_655  A
C1590      C1591   1.520       .  S
C1591      F1597   1.384   1_455  S
C1594      F1598   1.384       .  S
C1601      C1602   1.409       .  A
C1601      C1606   1.413       .  A
C1601      H1608   1.082       .  S
C1602      C1603   1.426       .  A
C1603      C1604   1.412       .  A
C1603      C1610   1.521       .  S
C1604      C1605   1.408       .  A
C1604      H1609   1.081       .  S
C1605      C1606   1.428       .  A
C1606      C1607   1.523       .  S
C1607      F1611   1.385       .  S
C1607      F1612   1.383       .  S
C1607      F1613   1.384       .  S
C1610      F1614   1.383       .  S
C1610      F1615   1.382       .  S
C1610      F1616   1.385       .  S
C1617      C1618   1.399       .  A
C1617      C1622   1.403       .  A
C1617      H1624   1.082       .  S
C1618      C1619   1.417       .  A
C1619      C2180   1.399       .  A
C1619      C2186   1.512       .  S
C1620      C2179   1.398       .  A
C1620      C2181   1.397       .  A
C1620      H1625   1.085       .  S
C1621      C1690   1.460       .  S
C1621      C2180   1.394       .  A
C1621      C1622   1.416       .  A
C1622      C1623   1.517       .  S
C1623      F1627   1.385       .  S
C1623      F1628   1.381       .  S
C1623      F1629   1.383       .  S
C1626      C2179   1.516       .  S
C1626      F2190   1.382       .  S
C1626      F1631   1.383       .  S
C1626      F1632   1.385       .  S
F1630      C2186   1.381       .  S
C1633      C2194   1.409   1_545  A
C1633      C1638   1.417       .  A
C1633      H1640   1.082       .  S
C1634      C2193   1.410       .  A
C1634      C1635   1.409       .  A
C1635      C2196   1.383       .  A
C1635      C1642   1.526       .  S
C1636      C2195   1.395       .  A
C1636      C1637   1.409   1_565  A
C1636      H1641   1.085       .  S
C1637      C1638   1.417       .  A
C1638      C1639   1.515       .  S
C1639      F1643   1.384       .  S
C1639      F1644   1.383       .  S
C1639      F1645   1.383       .  S
C1642      F1646   1.383       .  S
C1642      F2207   1.383       .  S
C1642      F1648   1.381       .  S
F1647      C2202   1.382       .  S
C1649      C1654   1.398       .  A
C1649      H1656   1.083       .  S
C1650      C1651   1.423       .  A
C1651      C1658   1.516       .  S
C1652      C1653   1.407   1_455  A
C1653      C1654   1.412       .  A
C1654      C1655   1.506       .  S
C1655      F1659   1.385       .  S
C1655      F1660   1.381       .  S
C1655      F1661   1.379       .  S
C1658      F1662   1.383       .  S
C1658      F1663   1.383       .  S
C1658      F1664   1.384       .  S
C1665      C1666   1.405       .  A
C1665      C1670   1.412       .  A
C1665      H1672   1.082       .  S
C1666      C1667   1.425       .  A
C1668      H1673   1.084       .  S
C1669      C1670   1.417       .  A
C1670      C1671   1.516       .  S
C1671      F1675   1.385       .  S
C1671      F1676   1.383       .  S
C1671      F1677   1.381       .  S
C1674      F1678   1.383       .  S
C1674      F1680   1.385       .  S
Fe1681     O1697   2.105       .  S
Fe1681     O1687   2.060       .  S
Fe1681     O1694   2.066       .  S
Fe1681     O1692   1.969       .  S
Fe1682     O1685   2.055       .  S
Fe1682     O1689   2.095       .  S
Fe1682     O1692   1.976       .  S
Fe1683     O1701   2.072       .  S
Fe1683     O1695   2.038       .  S
Fe1683     O1692   1.962       .  S
O1684      C1691   1.276       .  A
O1685      C1699   1.267       .  A
O1686      C1691   1.277       .  A
O1687      C1690   1.264       .  A
O1688      C1700   1.264       .  A
O1689      C1702   1.282       .  A
C1690      O1695   1.258       .  A
C1691      C2226   1.479       .  S
O1694      C1696   1.263       .  A
C1696      C2146   1.496       .  S
O1697      C1702   1.282       .  A
O1698      C1700   1.279       .  A
C1699      O1701   1.265       .  A
C1699      C2210   1.492       .  S
C1700      C2197   1.506       .  S
C1702      C2165   1.525       .  S
Fe1703     O1719   2.098       .  S
Fe1703     O1709   2.055       .  S
Fe1703     O1716   2.065       .  S
Fe1703     O1708   2.090       .  S
Fe1703     O1714   1.969       .  S
Fe1704     O1707   2.051       .  S
Fe1704     O1711   2.101       .  S
Fe1704     O1715   2.057       .  S
Fe1704     O1720   2.099       .  S
Fe1704     O1714   1.971       .  S
Fe1705     O1723   2.077       .  S
Fe1705     O1710   2.020       .  S
Fe1705     O1717   2.041       .  S
Fe1705     O1706   2.066       .  S
Fe1705     O1714   1.968       .  S
O1706      C1713   1.270       .  A
O1707      C1721   1.266       .  A
O1708      C1713   1.277       .  A
O1709      C1712   1.264       .  A
O1710      C1722   1.262       .  A
O1711      C1724   1.283       .  A
C1712      O1717   1.260       .  A
C1712      C2082   1.457       .  S
C1713      C2130   1.486       .  S
O1715      C1718   1.262       .  A
O1716      C1718   1.262       .  A
C1718      C2069   1.495       .  S
O1719      C1724   1.280       .  A
O1720      C1722   1.276       .  A
C1721      O1723   1.267       .  A
C1721      C2114   1.490       .  S
C1722      C2098   1.471       .  S
C1724      C2162   1.524       .  S
Fe1725     O1741   2.106       .  S
Fe1725     O1731   2.067       .  S
Fe1725     O1738   2.067       .  S
Fe1725     O1730   2.099       .  S
Fe1725     O1736   1.965       .  S
Fe1726     O1729   2.052       .  S
Fe1726     O1733   2.092       .  S
Fe1726     O1737   2.059       .  S
Fe1726     O1742   2.087       .  S
Fe1726     O1736   1.969       .  S
Fe1727     O1745   2.056       .  S
Fe1727     O1732   2.040       .  S
Fe1727     O1739   2.051       .  S
Fe1727     O1728   2.036       .  S
Fe1727     O1736   1.967       .  S
O1728      C1735   1.268       .  A
O1729      C1743   1.265       .  A
O1730      C1735   1.279       .  A
O1731      C1734   1.265       .  A
O1732      C1744   1.267       .  A
O1733      C1746   1.279       .  A
C1734      O1739   1.260       .  A
C1734      C2002   1.474       .  S
C1735      C2050   1.480       .  S
O1737      C1740   1.260       .  A
O1738      C1740   1.263       .  A
C1740      C2066   1.494       .  S
O1741      C1746   1.286       .  A
O1742      C1744   1.275       .  A
C1743      O1745   1.264       .  A
C1743      C2034   1.469       .  S
C1744      C2021   1.475       .  S
C1746      C1986   1.522       .  S
Fe1747     O1763   2.099       .  S
Fe1747     O1760   2.067   1_655  S
Fe1747     O1758   1.965       .  S
Fe1748     O1751   2.042       .  S
Fe1748     O1755   2.102       .  S
Fe1748     O1758   1.954       .  S
Fe1749     O1767   2.077       .  S
Fe1749     O1761   2.073       .  S
Fe1749     O1758   1.973       .  S
O1750      C1757   1.270       .  A
O1751      C1765   1.266       .  A
O1752      C1757   1.278       .  A
O1754      C1766   1.267       .  A
O1755      C1768   1.281       .  A
C1756      O1761   1.266       .  A
C1757      C1957   1.477       .  S
O1760      C1762   1.260   1_455  A
C1762      C2149   1.489       .  S
O1763      C1768   1.285       .  A
O1764      C1766   1.273       .  A
C1765      O1767   1.267       .  A
C1766      C1922   1.468       .  S
C1768      C1989   1.523       .  S
Fe1769     O1785   2.103       .  S
Fe1769     O1775   2.027       .  S
Fe1769     O1782   2.052       .  S
Fe1769     O1774   2.105       .  S
Fe1769     O1780   1.960       .  S
Fe1770     O1781   2.052       .  S
Fe1770     O1786   2.065       .  S
Fe1771     O1789   2.076       .  S
Fe1771     O1783   2.078       .  S
Fe1771     O1772   2.060       .  S
Fe1771     O1780   1.980       .  S
O1772      C1779   1.268       .  A
O1773      C1787   1.261       .  A
O1774      C1779   1.276       .  A
O1775      C1778   1.265       .  A
O1776      C1788   1.273       .  A
O1777      C1790   1.279       .  A
C1778      O1783   1.267       .  A
C1778      C2101   1.491       .  S
C1779      C2213   1.490       .  S
O1782      C1784   1.259       .  A
C1784      C1890   1.479       .  S
O1785      C1790   1.283       .  A
O1786      C1788   1.273       .  A
C1787      O1789   1.265   1_455  A
C1788      C2085   1.464       .  S
C1790      C1906   1.522       .  S
Fe1791     O1807   2.097       .  S
Fe1791     O1797   2.069       .  S
Fe1791     O1804   2.082       .  S
Fe1791     O1802   1.975       .  S
Fe1792     O1795   2.058       .  S
Fe1792     O1799   2.099       .  S
Fe1792     O1803   2.060       .  S
Fe1792     O1808   2.091       .  S
Fe1792     O1802   1.974       .  S
Fe1793     O1811   2.066       .  S
Fe1793     O1798   2.039       .  S
Fe1793     O1805   2.060       .  S
Fe1793     O1802   1.980       .  S
O1794      C1801   1.266       .  A
O1795      C1809   1.264       .  A
O1796      C1801   1.273       .  A
O1797      C1800   1.271       .  A
O1798      C1810   1.267       .  A
O1799      C1812   1.278       .  A
C1800      O1805   1.266       .  A
C1800      C2194   1.475       .  S
C1801      C2117   1.474       .  S
O1803      C1806   1.262       .  A
O1804      C1806   1.267       .  A
C1806      C1874   1.497       .  S
O1807      C1812   1.280       .  A
O1808      C1810   1.276       .  A
C1809      O1811   1.264       .  A
C1809      C2133   1.473       .  S
C1810      C2178   1.478       .  S
C1812      C1909   1.524       .  S
Fe1813     O1829   2.077       .  S
Fe1813     O1819   2.043       .  S
Fe1813     O1826   2.043       .  S
Fe1813     O1824   1.967       .  S
Fe1814     O1817   2.063       .  S
Fe1814     O1821   2.107       .  S
Fe1814     O1825   2.064       .  S
Fe1814     O1830   2.099       .  S
Fe1814     O1824   1.968       .  S
Fe1815     O1833   2.054       .  S
Fe1815     O1820   2.050       .  S
Fe1815     O1827   2.071       .  S
Fe1815     O1824   1.974       .  S
O1816      C1823   1.269       .  A
O1817      C1831   1.265       .  A
O1818      C1823   1.271       .  A
O1819      C1822   1.263       .  A
O1820      C1832   1.272       .  A
O1821      C1834   1.286       .  A
C1822      O1827   1.265       .  A
C1822      C1925   1.475       .  S
C1823      C2037   1.468       .  S
O1825      C1828   1.261       .  A
O1826      C1828   1.259       .  A
C1828      C1893   1.484       .  S
O1829      C1834   1.276       .  A
O1830      C1832   1.278       .  A
C1831      O1833   1.262       .  A
C1831      C2053   1.469       .  S
C1832      C1941   1.496       .  S
C1834      C1858   1.513       .  S
Fe1835     O1851   2.109       .  S
Fe1835     O1841   2.031       .  S
Fe1835     O1848   2.052       .  S
Fe1835     O1840   2.096       .  S
Fe1835     O1846   1.949       .  S
Fe1836     O1839   2.053       .  S
Fe1836     O1843   2.084       .  S
Fe1836     O1846   1.958       .  S
Fe1837     O1855   2.054       .  S
Fe1837     O1849   2.082       .  S
Fe1837     O1838   2.033       .  S
Fe1837     O1846   1.962       .  S
O1838      C1845   1.265       .  A
O1839      C1853   1.263       .  A
O1840      C1845   1.277       .  A
O1841      C1844   1.258       .  A
O1842      C1854   1.274       .  A
O1843      C1856   1.281       .  A
C1844      O1849   1.270       .  A
C1844      C2018   1.491       .  S
C1845      C1970   1.469       .  S
O1848      C1850   1.258       .  A
C1850      C1877   1.501       .  S
O1851      C1856   1.282       .  A
O1852      C1854   1.275       .  A
C1853      O1855   1.263       .  A
C1854      C2005   1.481       .  S
C1856      C1861   1.516       .  S
C1857      C1858   1.405       .  A
C1857      C1862   1.412       .  A
C1857      H1864   1.081       .  S
C1858      C1859   1.429       .  A
C1859      C1860   1.416       .  A
C1859      C1866   1.521       .  S
C1860      C1861   1.409       .  A
C1860      H1865   1.082       .  S
C1861      C1862   1.429       .  A
C1862      C1863   1.516       .  S
C1863      F1867   1.385       .  S
C1863      F1868   1.383       .  S
C1863      F1869   1.378       .  S
C1866      F1870   1.384       .  S
C1866      F1871   1.383       .  S
C1866      F1872   1.385       .  S
C1873      C1874   1.404       .  A
C1873      C1878   1.414   1_566  A
C1873      H1880   1.083       .  S
C1875      C1876   1.410   1_556  A
C1875      C1882   1.521       .  S
C1876      C1877   1.410       .  A
C1876      H1881   1.082       .  S
C1878      C1879   1.521       .  S
C1879      F1883   1.385       .  S
C1879      F1884   1.383   1_545  S
C1879      F1885   1.383       .  S
C1882      F1886   1.383       .  S
C1882      F1887   1.383       .  S
C1882      F1888   1.385       .  S
C1889      C1894   1.408   1_556  A
C1889      H1896   1.083       .  S
C1890      C1891   1.417   1_655  A
C1891      C1892   1.405   1_556  A
C1891      C1898   1.519       .  S
C1892      H1897   1.084       .  S
C1893      C1894   1.418       .  A
C1894      C1895   1.519       .  S
C1895      F1899   1.385       .  S
C1895      F1900   1.383       .  S
C1895      F1901   1.383       .  S
C1898      F1902   1.383       .  S
C1898      F1903   1.382   1_455  S
C1898      F1904   1.385       .  S
C1905      C1906   1.411       .  A
C1905      C1910   1.418       .  A
C1905      H1912   1.081       .  S
C1906      C1907   1.427       .  A
C1907      C1908   1.419       .  A
C1907      C1914   1.521       .  S
C1908      C1909   1.412       .  A
C1908      H1913   1.081       .  S
C1909      C1910   1.429       .  A
C1910      C1911   1.521       .  S
C1911      F1915   1.385       .  S
C1911      F1916   1.381       .  S
C1911      F1917   1.383       .  S
C1914      F1918   1.383       .  S
C1914      F1919   1.384       .  S
C1914      F1920   1.385       .  S
C1921      C1922   1.404   1_455  A
C1921      C1926   1.414       .  A
C1921      H1928   1.083       .  S
C1923      C1924   1.394       .  A
C1923      C1930   1.518       .  S
C1924      C1925   1.401       .  A
C1924      H1929   1.080       .  S
C1926      C1927   1.517       .  S
C1927      F1931   1.385       .  S
C1927      F1932   1.383       .  S
C1927      F1933   1.383       .  S
C1930      F1934   1.381       .  S
C1930      F1935   1.382       .  S
C1930      F1936   1.384       .  S
C1937      C1938   1.405       .  A
C1937      C1942   1.416       .  A
C1937      H1944   1.083       .  S
C1938      C1939   1.412       .  A
C1939      C1940   1.401       .  A
C1940      C1941   1.409       .  A
C1940      H1945   1.083       .  S
C1941      C1942   1.421       .  A
C1942      C1943   1.516       .  S
C1943      F1947   1.385       .  S
C1943      F1948   1.382       .  S
C1943      F1949   1.384       .  S
C1946      F1951   1.382       .  S
C1946      F1952   1.383       .  S
C1953      C1954   1.406   1_565  A
C1953      C1958   1.407       .  A
C1953      H1960   1.083       .  S
C1955      C1962   1.519       .  S
C1956      C1957   1.408   1_545  A
C1957      C1958   1.412       .  A
C1958      C1959   1.518       .  S
C1959      F1963   1.385       .  S
C1959      F1964   1.383       .  S
C1959      F1965   1.383       .  S
C1962      F1966   1.382       .  S
C1962      F1967   1.383       .  S
C1962      F1968   1.385       .  S
C1969      C1974   1.418   1_545  A
C1969      H1976   1.082   1_545  S
C1970      C1971   1.413       .  A
C1971      C1972   1.392       .  A
C1971      C1978   1.524       .  S
C1972      C1973   1.405       .  A
C1972      H1977   1.082       .  S
C1974      C1975   1.516       .  S
C1975      F1979   1.385       .  S
C1975      F1980   1.383       .  S
C1975      F1981   1.383       .  S
C1978      F1982   1.379       .  S
C1978      F1983   1.385       .  S
C1978      F1984   1.381       .  S
C1985      C1986   1.408       .  A
C1985      C1990   1.415       .  A
C1985      H1992   1.080       .  S
C1986      C1987   1.430       .  A
C1987      C1988   1.419       .  A
C1987      C1994   1.522       .  S
C1988      C1989   1.411       .  A
C1988      H1993   1.081       .  S
C1989      C1990   1.431       .  A
C1990      C1991   1.523       .  S
C1991      F1995   1.385       .  S
C1991      F1996   1.383       .  S
C1991      F1997   1.383       .  S
C1994      F1998   1.383       .  S
C1994      F1999   1.384       .  S
C1994      F2000   1.385       .  S
C2001      C2002   1.404       .  A
C2001      C2006   1.410       .  A
C2001      H2008   1.084       .  S
C2002      C2003   1.410       .  A
C2003      C2004   1.404       .  A
C2003      C2010   1.515       .  S
C2004      C2005   1.407       .  A
C2004      H2009   1.084       .  S
C2005      C2006   1.416       .  A
C2006      C2007   1.517       .  S
C2007      F2011   1.385       .  S
C2007      F2012   1.383       .  S
C2007      F2013   1.383       .  S
C2010      F2014   1.384       .  S
C2010      F2015   1.379       .  S
C2010      F2016   1.385       .  S
C2017      C2018   1.411       .  A
C2017      C2022   1.412       .  A
C2017      H2024   1.084       .  S
C2018      C2019   1.430       .  A
C2019      C2020   1.398       .  A
C2019      C2026   1.531       .  S
C2020      C2021   1.399       .  A
C2020      H2025   1.084       .  S
C2021      C2022   1.417       .  A
C2022      C2023   1.519       .  S
C2023      F2027   1.385       .  S
C2023      F2028   1.381       .  S
C2023      F2029   1.382       .  S
C2026      F2030   1.382       .  S
C2026      F2031   1.381       .  S
C2026      F2032   1.385       .  S
C2033      C2034   1.402       .  A
C2033      C2038   1.398       .  A
C2033      H2040   1.084       .  S
C2034      C2035   1.412       .  A
C2035      C2036   1.410       .  A
C2035      C2042   1.516       .  S
C2036      C2037   1.406       .  A
C2036      H2041   1.083       .  S
C2037      C2038   1.411       .  A
C2038      C2039   1.515       .  S
C2039      F2043   1.382       .  S
C2039      F2044   1.383       .  S
C2039      F2045   1.385       .  S
C2042      F2046   1.384       .  S
C2042      F2047   1.382       .  S
C2042      F2048   1.384       .  S
C2049      C2050   1.411       .  A
C2049      C2054   1.403       .  A
C2049      H2056   1.084       .  S
C2050      C2051   1.414       .  A
C2051      C2052   1.409       .  A
C2051      C2058   1.516       .  S
C2052      C2053   1.405       .  A
C2052      H2057   1.084       .  S
C2053      C2054   1.408       .  A
C2054      C2055   1.518       .  S
C2055      F2059   1.383       .  S
C2055      F2060   1.385       .  S
C2055      F2061   1.382       .  S
C2058      F2062   1.383       .  S
C2058      F2063   1.383       .  S
C2058      F2064   1.385       .  S
C2065      C2066   1.406       .  A
C2065      C2070   1.411       .  A
C2065      H2072   1.083       .  S
C2066      C2067   1.422       .  A
C2067      C2068   1.409       .  A
C2067      C2074   1.521       .  S
C2068      C2069   1.407       .  A
C2068      H2073   1.083       .  S
C2069      C2070   1.422       .  A
C2070      C2071   1.520       .  S
C2071      F2075   1.385       .  S
C2071      F2076   1.383       .  S
C2071      F2077   1.384       .  S
C2074      F2078   1.384       .  S
C2074      F2079   1.383       .  S
C2074      F2080   1.385       .  S
C2081      C2082   1.392       .  A
C2081      C2086   1.396       .  A
C2081      H2088   1.085       .  S
C2082      C2083   1.417       .  A
C2083      C2084   1.401       .  A
C2083      C2090   1.512       .  S
C2084      C2085   1.395       .  A
C2084      H2089   1.082       .  S
C2085      C2086   1.417       .  A
C2086      C2087   1.508       .  S
C2087      F2091   1.383       .  S
C2087      F2092   1.383       .  S
C2087      F2093   1.381       .  S
C2090      F2094   1.378       .  S
C2090      F2095   1.383       .  S
C2090      F2096   1.385       .  S
C2097      C2098   1.406       .  A
C2097      C2102   1.420       .  A
C2097      H2104   1.083       .  S
C2098      C2099   1.412       .  A
C2099      C2100   1.383       .  A
C2099      C2106   1.520       .  S
C2100      C2101   1.405       .  A
C2100      H2105   1.081       .  S
C2101      C2102   1.422       .  A
C2102      C2103   1.515       .  S
C2103      F2107   1.385       .  S
C2103      F2108   1.382       .  S
C2103      F2109   1.384       .  S
C2106      F2110   1.374       .  S
C2106      F2111   1.383       .  S
C2106      F2112   1.385       .  S
C2113      C2114   1.405       .  A
C2113      C2118   1.394       .  A
C2113      H2120   1.083       .  S
C2114      C2115   1.421       .  A
C2115      C2116   1.418       .  A
C2115      C2122   1.516       .  S
C2116      C2117   1.406       .  A
C2116      H2121   1.082       .  S
C2117      C2118   1.410       .  A
C2118      C2119   1.519       .  S
C2119      F2123   1.385       .  S
C2119      F2124   1.380       .  S
C2119      F2125   1.384       .  S
C2122      F2126   1.384       .  S
C2122      F2127   1.384       .  S
C2122      F2128   1.382       .  S
C2129      C2130   1.405       .  A
C2129      C2134   1.411       .  A
C2129      H2136   1.081       .  S
C2130      C2131   1.422       .  A
C2131      C2132   1.404       .  A
C2131      C2138   1.516       .  S
C2132      C2133   1.396       .  A
C2132      H2137   1.083       .  S
C2133      C2134   1.416       .  A
C2134      C2135   1.518       .  S
C2135      F2139   1.385       .  S
C2135      F2140   1.383       .  S
C2135      F2141   1.383       .  S
C2138      F2142   1.382       .  S
C2138      F2143   1.382       .  S
C2138      F2144   1.385       .  S
C2145      H2152   1.083       .  S
C2146      C2147   1.420       .  A
C2147      C2154   1.521       .  S
C2148      H2153   1.083       .  S
C2149      C2150   1.421       .  A
C2150      C2151   1.519       .  S
C2151      F2157   1.384       .  S
C2154      F2158   1.384       .  S
C2161      C2162   1.413       .  A
C2161      C2166   1.419       .  A
C2161      H2168   1.081       .  S
C2162      C2163   1.428       .  A
C2163      C2164   1.418       .  A
C2163      C2170   1.522       .  S
C2164      C2165   1.413       .  A
C2164      H2169   1.081       .  S
C2165      C2166   1.428       .  A
C2166      C2167   1.521       .  S
C2167      F2171   1.385       .  S
C2167      F2172   1.384       .  S
C2167      F2173   1.383       .  S
C2170      F2174   1.384       .  S
C2170      F2175   1.383       .  S
C2170      F2176   1.385       .  S
C2177      C2178   1.401       .  A
C2177      C2182   1.409       .  A
C2177      H2184   1.083       .  S
C2178      C2179   1.420   1_565  A
C2180      H2185   1.084       .  S
C2181      C2182   1.420   1_545  A
C2182      C2183   1.515       .  S
C2183      F2187   1.385       .  S
C2183      F2188   1.377       .  S
C2183      F2189   1.383       .  S
C2186      F2191   1.384       .  S
C2186      F2192   1.384       .  S
C2193      C2198   1.423       .  A
C2193      H2200   1.082       .  S
C2194      C2195   1.408       .  A
C2195      C2202   1.519       .  S
C2196      C2197   1.413       .  A
C2196      H2201   1.081       .  S
C2197      C2198   1.423       .  A
C2198      C2199   1.515       .  S
C2199      F2203   1.385       .  S
C2199      F2204   1.383       .  S
C2199      F2205   1.383       .  S
C2202      F2206   1.384       .  S
C2202      F2208   1.384       .  S
C2209      C2214   1.399       .  A
C2209      H2216   1.083       .  S
C2210      C2211   1.422       .  A
C2211      C2218   1.516       .  S
C2212      C2213   1.408       .  A
C2213      C2214   1.413       .  A
C2214      C2215   1.517       .  S
C2215      F2219   1.385       .  S
C2215      F2220   1.381       .  S
C2215      F2221   1.380       .  S
C2218      F2222   1.383       .  S
C2218      F2223   1.383       .  S
C2218      F2224   1.384       .  S
C2225      C2226   1.400       .  A
C2225      C2230   1.403       .  A
C2225      H2232   1.081       .  S
C2226      C2227   1.420       .  A
C2228      H2233   1.084       .  S
C2229      C2230   1.418       .  A
C2230      C2231   1.520       .  S
C2231      F2235   1.385       .  S
C2231      F2236   1.383       .  S
C2231      F2237   1.381       .  S
C2234      F2238   1.383       .  S
C2234      F2240   1.379       .  S
