geometry optimzed in LAMMPS
_audit_creation_date              2020-12-01 
_audit_creation_method            'lammps2cif' 
_symmetry_space_group_name_H-M    'P1' 
_symmetry_Int_Tables_number       1 
_symmetry_cell_setting            triclinic 
loop_ 
_symmetry_equiv_pos_as_xyz 
  x,y,z 
_cell_length_a                    35.46916473 
_cell_length_b                    35.59723364314806 
_cell_length_c                    48.33318750533846 
_cell_angle_alpha                 89.88186386653786 
_cell_angle_beta                  89.91079427955499 
_cell_angle_gamma                 119.24442595514684 
loop_ 
_atom_site_label 
_atom_site_type_symbol 
_atom_site_fract_x 
_atom_site_fract_y 
_atom_site_fract_z 
_atom_site_charge 
O1          O  0.43915071  0.58445598  0.53417390    -0.83000
C2          C  0.52819814  0.65669015  0.63191265     0.96300
O3          O  0.50279735  0.66726674  0.62035908    -0.72100
O4          O  0.48456709  0.69280367  0.57448557    -0.75700
Al5        Al  0.45957526  0.63852253  0.59347190     1.49000
C6          C  0.48270683  0.69664562  0.54888615     0.91600
O7          O  0.55951789  0.66711731  0.55124690    -0.81900
O8          O  0.48652450  0.54019229  0.56676343    -0.75500
Al9        Al  0.49953494  0.62594163  0.54100188     1.90100
O10         O  0.56315293  0.61724234  0.57696834    -0.74600
O11         O  0.45660213  0.54969293  0.61386381    -0.74400
O12         O  0.53073948  0.62404049  0.62437900    -0.80100
O13         O  0.42823359  0.59161680  0.61749772    -0.78300
O14         O  0.48839380  0.61638030  0.57673100    -1.14400
O15         O  0.41314532  0.60977889  0.56752707    -0.73600
C16         C  0.40743728  0.58361819  0.54776603     0.97100
C17         C  0.58045879  0.65587261  0.56810234     0.93500
Al18       Al  0.50767614  0.58521049  0.59411668     1.55600
O19         O  0.48561223  0.67000079  0.53371766    -0.78200
C20         C  0.42897390  0.55786704  0.62411498     0.97700
C21         C  0.50058807  0.54673914  0.54231383     0.92500
O22         O  0.51614856  0.58394825  0.53254373    -0.83600
O23         O  0.88244610  0.79968544  0.66042581    -0.83000
C24         C  0.84247308  0.82076731  0.55129474     0.96300
O25         O  0.87226296  0.84898014  0.56588733    -0.72100
O26         O  0.85835915  0.87779199  0.61272564    -0.75700
Al27       Al  0.89171202  0.85096030  0.60257875     1.49000
C28         C  0.84862485  0.87943964  0.63757723     0.91600
O29         O  0.77267527  0.77890734  0.63025381    -0.81900
O30         O  0.84285320  0.72050537  0.61479917    -0.75500
Al31       Al  0.82767200  0.79026154  0.64562537     1.90100
O32         O  0.77214356  0.73210476  0.59965044    -0.74600
O33         O  0.88584316  0.76994588  0.57280756    -0.74400
O34         O  0.81928356  0.78284650  0.55998222    -0.80100
O35         O  0.93047827  0.83239375  0.59081139    -0.78300
O36         O  0.85019836  0.79883940  0.61174902    -1.14400
O37         O  0.91952662  0.86107783  0.63802688    -0.73600
C38         C  0.91844884  0.83194950  0.65371903     0.97100
C39         C  0.75324610  0.74987460  0.61194271     0.93500
Al40       Al  0.83143755  0.75458830  0.58878415     1.55600
O41         O  0.84122443  0.84867553  0.65362928    -0.78200
C42         C  0.92348836  0.80101939  0.57561060     0.97700
C43         C  0.82591539  0.71041360  0.63849100     0.92500
O44         O  0.80782258  0.73019972  0.64832550    -0.83600
O45         O  0.81777544  0.54653838  0.70177578    -0.83000
C46         C  0.82630531  0.49526219  0.81142187     0.96300
O47         O  0.83630094  0.53297735  0.80361986    -0.72100
O48         O  0.89049579  0.55680415  0.76307429    -0.75700
Al49       Al  0.83906342  0.55683236  0.76707490     1.49000
C50         C  0.90695359  0.54975042  0.74220789     0.91600
O51         O  0.82565005  0.44867909  0.72169190    -0.81900
O52         O  0.72654035  0.45938465  0.74413321    -0.75500
Al53       Al  0.82129523  0.49893598  0.71507921     1.90100
O54         O  0.77153785  0.41729507  0.75042010    -0.74600
O55         O  0.75211860  0.49719015  0.79090762    -0.74400
O56         O  0.80647985  0.46350697  0.79550515    -0.80100
O57         O  0.78941832  0.56208970  0.77348696    -0.78300
O58         O  0.80960966  0.50610916  0.75002594    -1.14400
O59         O  0.84897287  0.59258928  0.73496574    -0.73600
C60         C  0.83355744  0.58408327  0.71086505     0.97100
C61         C  0.79708282  0.41520782  0.73321084     0.93500
Al62       Al  0.76780551  0.46283515  0.76859720     1.55600
O63         O  0.88457144  0.53167197  0.72066674    -0.78200
C64         C  0.75952585  0.53553600  0.78869545     0.97700
C65         C  0.72557248  0.45613301  0.71824576     0.92500
O66         O  0.75977106  0.46533916  0.70444918    -0.83600
O67         O  0.15043662  0.70684880  0.81938535    -0.83000
C68         C  0.14213295  0.64097989  0.71502087     0.96300
O69         O  0.14209937  0.67425537  0.72373439    -0.72100
O70         O  0.10331913  0.67723838  0.76967279    -0.75700
Al71       Al  0.16164256  0.70708294  0.75680475     1.49000
C72         C  0.08154587  0.64029484  0.78099645     0.91600
O73         O  0.16349880  0.60959685  0.81615532    -0.81900
O74         O  0.24064391  0.66222261  0.78599468    -0.75500
Al75       Al  0.15945916  0.66006282  0.80995542     1.90100
O76         O  0.16261501  0.58786237  0.77472288    -0.74600
O77         O  0.23740360  0.69179029  0.73670852    -0.74400
O78         O  0.15851755  0.62254099  0.72869106    -0.80100
O79         O  0.21695940  0.74016746  0.74203964    -0.78300
O80         O  0.17326598  0.67032229  0.77448353    -1.14400
O81         O  0.18132640  0.74947801  0.78509763    -0.73600
C82         C  0.16718226  0.74382512  0.80928560     0.97100
C83         C  0.16127984  0.58112184  0.80023666     0.93500
Al84       Al  0.19773320  0.64333619  0.75807500     1.55600
O85         O  0.09923348  0.62660380  0.79863978    -0.78200
C86         C  0.24255021  0.72887547  0.73208488     0.97700
C87         C  0.24969783  0.68780358  0.80641145     0.92500
O88         O  0.22088694  0.69388383  0.81871262    -0.83600
O89         O  0.09695957  0.90063554  0.86262407    -0.83000
C90         C  0.15802674  0.96562912  0.97002103     0.96300
O91         O  0.12163105  0.95597630  0.95989895    -0.72100
O92         O  0.11373891  0.99391050  0.91477020    -0.75700
Al93       Al  0.09449428  0.93528862  0.92512634     1.49000
C94         C  0.11735801  0.00586782  0.88987114     0.91600
O95         O  0.20680241  0.99751322  0.88452842    -0.81900
O96         O  0.16091566  0.87311530  0.90288677    -0.75500
Al97       Al  0.15156874  0.94892843  0.87412261     1.90100
O98         O  0.22433146  0.95825197  0.91147692    -0.74600
O99         O  0.12613588  0.87472613  0.95015228    -0.74400
O100        O  0.18477216  0.95875536  0.95689606    -0.80100
O101        O  0.06870179  0.87765656  0.93760447    -0.78300
O102        O  0.13910188  0.93405914  0.90959493    -1.14400
O103        O  0.05834931  0.91298133  0.89350154    -0.73600
C104        C  0.06063950  0.89230250  0.87288312     0.97100
C105        C  0.23425693  0.99346960  0.89939845     0.93500
Al106      Al  0.17141753  0.91747806  0.92858326     1.55600
O107        O  0.12785745  0.98730854  0.87172525    -0.78200
C108        C  0.08596422  0.85986529  0.95118896     0.97700
C109        C  0.17090345  0.87923093  0.87765676     0.92500
O110        O  0.17772546  0.91395067  0.86631407    -0.83600
O111        O  0.54004883  0.13188399  0.98488087    -0.83000
C112        C  0.48980458  0.12395092  0.87267223     0.96300
O113        O  0.52497062  0.15159106  0.88333526    -0.72100
O114        O  0.52664366  0.19923053  0.92540690    -0.75700
Al115      Al  0.54915117  0.16097302  0.91930146     1.49000
C116        C  0.51872915  0.20831950  0.94911364     0.91600
O117        O  0.42997964  0.10815753  0.95247640    -0.81900
O118        O  0.48872580  0.03700884  0.94468473    -0.75500
Al119      Al  0.48544573  0.11949052  0.96813246     1.90100
O120        O  0.42118725  0.05057126  0.93064451    -0.74600
O121        O  0.52500717  0.07005895  0.89785483    -0.74400
O122        O  0.46356627  0.09061304  0.88577951    -0.80100
O123        O  0.57943115  0.13071001  0.91083501    -0.78300
O124        O  0.50423406  0.11588526  0.93444703    -1.14400
O125        O  0.58126939  0.17739659  0.95235736    -0.73600
C126        C  0.57686911  0.16019052  0.97586139     0.97100
C127        C  0.40698074  0.07559506  0.93736232     0.93500
Al128      Al  0.47685476  0.06607120  0.91640614     1.55600
O129        O  0.50376622  0.17986149  0.96764468    -0.78200
C130        C  0.56482532  0.09580776  0.89786538     0.97700
C131        C  0.47697516  0.03455753  0.96950814     0.92500
O132        O  0.46427839  0.05990542  0.97843187    -0.83600
O133        O  0.14911816  0.21383188  0.36842816    -0.83000
C134        C  0.15000368  0.12245035  0.46214143     0.96300
O135        O  0.15870495  0.16165745  0.46249417    -0.72100
O136        O  0.21510379  0.20486002  0.42550248    -0.75700
Al137      Al  0.16216455  0.19982916  0.43260146     1.49000
C138        C  0.23333511  0.20418088  0.40352302     0.91600
O139        O  0.15461658  0.11191130  0.37084258    -0.81900
O140        O  0.05375362  0.11552013  0.40081232    -0.75500
Al141      Al  0.15029865  0.16307843  0.37293203     1.90100
O142        O  0.09491879  0.07074349  0.39257445    -0.74600
O143        O  0.07665015  0.12991475  0.45137191    -0.74400
O144        O  0.13240411  0.09912672  0.44132848    -0.80100
O145        O  0.11060280  0.19896336  0.44289726    -0.78300
O146        O  0.13564537  0.15742561  0.40830908    -1.14400
O147        O  0.17190811  0.24665019  0.40793846    -0.73600
C148        C  0.16181813  0.24675772  0.38292756     0.97100
C149        C  0.12417394  0.07511824  0.37613589     0.93500
Al150      Al  0.09317123  0.10783866  0.42040405     1.55600
O151        O  0.21285061  0.19249490  0.38066196    -0.78200
C152        C  0.08083736  0.16685071  0.45484111     0.97700
C153        C  0.05485389  0.12504942  0.37570898     0.92500
O154        O  0.08868064  0.13587345  0.36079172    -0.83600
O155        O  0.47303569  0.37495454  0.48112234    -0.83000
C156        C  0.44290566  0.29145823  0.38473340     0.96300
O157        O  0.44448838  0.32662545  0.39134195    -0.72100
O158        O  0.42172524  0.34354156  0.43942996    -0.75700
Al159      Al  0.47468595  0.36836089  0.41964142     1.49000
C160        C  0.40142996  0.30511395  0.44813342     0.91600
O161        O  0.49026714  0.28056962  0.48089614    -0.81900
O162        O  0.56318607  0.33406032  0.44402734    -0.75500
Al163      Al  0.48232194  0.32805315  0.47319904     1.90100
O164        O  0.48754176  0.25430461  0.44079497    -0.74600
O165        O  0.54571933  0.35033088  0.39441049    -0.74400
O166        O  0.46781470  0.27962643  0.39555565    -0.80100
O167        O  0.52405250  0.39794571  0.39700465    -0.78300
O168        O  0.49126437  0.33487784  0.43719090    -1.14400
O169        O  0.50262098  0.41567557  0.44542090    -0.73600
C170        C  0.49049605  0.41163667  0.47033352     0.97100
C171        C  0.49111815  0.25226784  0.46636207     0.93500
Al172      Al  0.51421411  0.30711392  0.42021297     1.55600
O173        O  0.42049979  0.29118801  0.46461129    -0.78200
C174        C  0.54730632  0.38444796  0.38624215     0.97700
C175        C  0.57309890  0.35985064  0.46452455     0.92500
O176        O  0.54454730  0.36429025  0.47857162    -0.83600
O177        O  0.76326049  0.26224643  0.20341951    -0.83000
C178        C  0.86075115  0.31934813  0.30004339     0.96300
O179        O  0.84265842  0.33801902  0.28829803    -0.72100
O180        O  0.82842584  0.37053503  0.24353867    -0.75700
Al181      Al  0.79693002  0.31610974  0.26273667     1.49000
C182        C  0.82598646  0.37508396  0.21799513     0.91600
O183        O  0.88734963  0.32745678  0.21800499    -0.81900
O184        O  0.80035561  0.20401862  0.23289302    -0.75500
Al185      Al  0.82577060  0.29478139  0.20880971     1.90100
O186        O  0.88308757  0.27334156  0.24337066    -0.74600
O187        O  0.77476853  0.21836342  0.27948238    -0.74400
O188        O  0.85549160  0.28351625  0.29172822    -0.80100
O189        O  0.76089564  0.27077014  0.28702007    -0.78300
O190        O  0.81622695  0.28607977  0.24451564    -1.14400
O191        O  0.74892228  0.29520388  0.23839756    -0.73600
C192        C  0.73668642  0.26909160  0.21800577     0.97100
C193        C  0.90481265  0.31194551  0.23456830     0.93500
Al194      Al  0.82762257  0.24790867  0.26060234     1.55600
O195        O  0.82228237  0.34543519  0.20268149    -0.78200
C196        C  0.75250714  0.23252439  0.29091895     0.97700
C197        C  0.81215012  0.20884733  0.20807176     0.92500
O198        O  0.83178194  0.24639031  0.19863949    -0.83600
O199        O  0.21740526  0.49352945  0.32121475    -0.83000
C200        C  0.15165589  0.46106247  0.21604238     0.96300
O201        O  0.17132642  0.49417186  0.23121967    -0.72100
O202        O  0.20723800  0.54181637  0.27714150    -0.75700
Al203      Al  0.21233256  0.49780508  0.25753041     1.49000
C204        C  0.17934026  0.54162449  0.29318661     0.91600
O205        O  0.09448493  0.42349746  0.30213910    -0.81900
O206        O  0.15024755  0.36910186  0.28979079    -0.75500
Al207      Al  0.15661800  0.45785769  0.30962905     1.90100
O208        O  0.09397447  0.38891615  0.26439375    -0.74600
O209        O  0.20393362  0.40510026  0.24927831    -0.74400
O210        O  0.14559163  0.42427490  0.22343243    -0.80100
O211        O  0.23180863  0.46991408  0.23263862    -0.78300
O212        O  0.17241181  0.45185895  0.27542045    -1.14400
O213        O  0.25396734  0.50147293  0.28219089    -0.73600
C214        C  0.25278513  0.50450172  0.30814083     0.97100
C215        C  0.07443649  0.39850559  0.28215374     0.93500
Al216      Al  0.14999252  0.40100351  0.25842971     1.55600
O217        O  0.14948963  0.50650310  0.30192395    -0.78200
C218        C  0.22941338  0.43364333  0.23298506     0.97700
C219        C  0.15739250  0.37736111  0.31513180     0.92500
O220        O  0.16064745  0.41135192  0.32490955    -0.83600
O221        O  0.82190123  0.05310143  0.14767200    -0.83000
C222        C  0.83860485  0.00428757  0.03870735     0.96300
O223        O  0.82452184  0.02950331  0.04544968    -0.72100
O224        O  0.76470224  0.99616365  0.08209329    -0.75700
Al225      Al  0.81503932  0.04819177  0.08088770     1.49000
C226        C  0.74697815  0.96823669  0.10062282     0.91600
O227        O  0.82934609  0.95417749  0.12839953    -0.81900
O228        O  0.92541643  0.06615054  0.11173623    -0.75500
Al229      Al  0.82706169  0.00582172  0.13441178     1.90100
O230        O  0.88819409  0.98073268  0.10382884    -0.74600
O231        O  0.90635765  0.07931420  0.06298138    -0.74400
O232        O  0.85799346  0.99297007  0.05591298    -0.80100
O233        O  0.86369952  0.10366665  0.07682557    -0.78300
O234        O  0.84386858  0.02755111  0.10037000    -1.14400
O235        O  0.79871387  0.07153798  0.11127652    -0.73600
C236        C  0.80782552  0.07566257  0.13660455     0.97100
C237        C  0.86118314  0.95166600  0.11940442     0.93500
Al238      Al  0.89028074  0.02936371  0.08506049     1.55600
O239        O  0.76580930  0.97176429  0.12374497    -0.78200
C240        C  0.89630454  0.10873234  0.06354812     0.97700
C241        C  0.92233861  0.06261770  0.13758047     0.92500
O242        O  0.88668876  0.03640506  0.14939441    -0.83600
O243        O  0.50621274  0.88719988  0.02902581    -0.83000
C244        C  0.51774323  0.82748334  0.13066375     0.96300
O245        O  0.52261266  0.86331568  0.12260410    -0.72100
O246        O  0.55790776  0.89937550  0.07510574    -0.75700
Al247      Al  0.50296806  0.88161698  0.09167294     1.49000
C248        C  0.57282062  0.87696246  0.06405835     0.91600
O249        O  0.47537147  0.77100962  0.03321612    -0.81900
O250        O  0.40172800  0.76782221  0.06833643    -0.75500
Al251      Al  0.48961353  0.82931773  0.03886128     1.90100
O252        O  0.46732405  0.74610344  0.07442988    -0.74600
O253        O  0.42270545  0.80342236  0.11750407    -0.74400
O254        O  0.49273772  0.79269955  0.11863599    -0.80100
O255        O  0.45339838  0.87264498  0.11083853    -0.78300
O256        O  0.48000794  0.83061180  0.07482691    -1.14400
O257        O  0.48485210  0.90807721  0.06465270    -0.73600
C258        C  0.49476648  0.91211806  0.03959004     0.97100
C259        C  0.46860414  0.74067975  0.04899987     0.93500
Al260      Al  0.44882203  0.78180817  0.09294159     1.55600
O261        O  0.54948977  0.84563743  0.04777227    -0.78200
C262        C  0.42600819  0.83939801  0.12290226     0.97700
C263        C  0.39706351  0.78503565  0.04631685     0.92500
O264        O  0.42932097  0.81230352  0.03177373    -0.83600
O265        O  0.58767517  0.06640299  0.48417450    -0.83000
C266        C  0.64948376  0.15386600  0.38614249     0.96300
O267        O  0.63108466  0.11535005  0.39448134    -0.72100
O268        O  0.62233610  0.06231071  0.43461375    -0.75700
Al269      Al  0.59043409  0.09039448  0.42392475     1.49000
C270        C  0.65766456  0.07479193  0.44749835     0.91600
O271        O  0.68085064  0.18029309  0.48768499    -0.81900
O272        O  0.62164503  0.20265752  0.47253733    -0.75500
Al273      Al  0.63192420  0.12425558  0.48050909     1.90100
O274        O  0.69438613  0.20883101  0.44661715    -0.74600
O275        O  0.57920008  0.17566711  0.42580004    -0.74400
O276        O  0.65026602  0.18346904  0.40068612    -0.80100
O277        O  0.55494547  0.11127569  0.40841845    -0.78300
O278        O  0.61941837  0.13435444  0.44663326    -1.14400
O279        O  0.54453296  0.05885377  0.45028440    -0.73600
C280        C  0.55064058  0.04716674  0.47374334     0.97100
C281        C  0.70584925  0.20948069  0.47134404     0.93500
Al282      Al  0.63517035  0.18824604  0.43713957     1.55600
O283        O  0.67067891  0.10505131  0.46539112    -0.78200
C284        C  0.55269385  0.14539138  0.41084691     0.97700
C285        C  0.59191535  0.17593991  0.48811782     0.92500
O286        O  0.59121172  0.14109061  0.49508019    -0.83600
O287        O  0.74628444  0.91507181  0.36601924    -0.83000
C288        C  0.79318984  0.98444352  0.46989848     0.96300
O289        O  0.76238966  0.94928764  0.46137777    -0.72100
O290        O  0.72421698  0.94464046  0.41353529    -0.75700
Al291      Al  0.75265485  0.91536354  0.42861866     1.49000
C292        C  0.74024360  0.98200887  0.40250114     0.91600
O293        O  0.85417878  0.01050494  0.37055374    -0.81900
O294        O  0.87656673  0.95900644  0.40575833    -0.75500
Al295      Al  0.80056830  0.96155883  0.37661303     1.90100
O296        O  0.87376306  0.03536414  0.41131938    -0.74600
O297        O  0.84049089  0.93458711  0.45411789    -0.74400
O298        O  0.82826686  0.00390017  0.45667972    -0.80100
O299        O  0.77528165  0.88309407  0.44523487    -0.78300
O300        O  0.80151896  0.95256176  0.41231458    -1.14400
O301        O  0.73388590  0.87214010  0.40011030    -0.73600
C302        C  0.72838799  0.87753366  0.37511569     0.97100
C303        C  0.88109296  0.03874690  0.38578677     0.93500
Al304      Al  0.85061862  0.98091324  0.43041318     1.55600
O305        O  0.77265634  0.99565957  0.38575185    -0.78200
C306        C  0.81074234  0.89634570  0.45729217     0.97700
C307        C  0.86344174  0.93376055  0.38496149     0.92500
O308        O  0.83010330  0.92761193  0.37064794    -0.83600
O309        O  0.07089619  0.57722046  0.03822392    -0.83000
C310        C  0.15026775  0.62657020  0.13972995     0.96300
O311        O  0.11249522  0.61093387  0.12999990    -0.72100
O312        O  0.06680180  0.61073697  0.08714264    -0.75700
Al313      Al  0.08760634  0.57318026  0.09893595     1.49000
C314        C  0.08733343  0.64842422  0.07708389     0.91600
O315        O  0.19003851  0.65890106  0.03857998    -0.81900
O316        O  0.19934246  0.58998702  0.05630544    -0.75500
Al317      Al  0.13079558  0.61560582  0.04414466     1.90100
O318        O  0.21547177  0.66777571  0.08016218    -0.74600
O319        O  0.16609594  0.55161534  0.10306592    -0.74400
O320        O  0.18029300  0.62619730  0.12598481    -0.80100
O321        O  0.09998199  0.53271475  0.11516617    -0.78300
O322        O  0.13505160  0.59912817  0.07834004    -1.14400
O323        O  0.05665272  0.53060388  0.07084570    -0.73600
C324        C  0.04957136  0.53917311  0.04665963     0.97100
C325        C  0.22007310  0.67976756  0.05534199     0.93500
Al326      Al  0.18605130  0.60831016  0.09030040     1.55600
O327        O  0.11781191  0.65837939  0.05948206    -0.78200
C328        C  0.13206575  0.52678593  0.11590124     0.97700
C329        C  0.17402201  0.56685602  0.03730617     0.92500
O330        O  0.14255232  0.57187892  0.02930998    -0.83600
O331        O  0.93220856  0.73615086  0.15370822    -0.83000
C332        C  0.99585492  0.79287146  0.04863764     0.96300
O333        O  0.96693469  0.75797757  0.05872195    -0.72100
O334        O  0.96720907  0.72113126  0.10585062    -0.75700
Al335      Al  0.93183267  0.74323402  0.09097220     1.49000
C336        C  0.00372832  0.74012745  0.11797742     0.91600
O337        O  0.02012523  0.84960367  0.14868243    -0.81900
O338        O  0.96214054  0.86544643  0.11880373    -0.75500
Al339      Al  0.97409428  0.79289885  0.14373248     1.90100
O340        O  0.04201062  0.86969305  0.10711533    -0.74600
O341        O  0.93360539  0.82858407  0.07105429    -0.74400
O342        O  0.00823695  0.82824670  0.06076193    -0.80100
O343        O  0.89385877  0.75866761  0.07354294    -0.78300
O344        O  0.96353428  0.79333465  0.10795586    -1.14400
O345        O  0.88845217  0.71871860  0.11929479    -0.73600
C346        C  0.89561477  0.71280300  0.14385009     0.97100
C347        C  0.04795237  0.87626033  0.13269861     0.93500
Al348      Al  0.98478707  0.84370978  0.09089208     1.55600
O349        O  0.01391485  0.77212168  0.13429615    -0.78200
C350        C  0.89946314  0.79442025  0.06516324     0.97700
C351        C  0.93510599  0.84632155  0.13824708     0.92500
O352        O  0.93336493  0.81381691  0.15108102    -0.83600
O353        O  0.73497998  0.49383554  0.18820314    -0.83000
C354        C  0.65842979  0.46611748  0.29306138     0.96300
O355        O  0.66824063  0.44142644  0.28009257    -0.72100
O356        O  0.63161543  0.41303310  0.23245520    -0.75700
Al357      Al  0.68983747  0.44151747  0.24463095     1.49000
C358        C  0.62140278  0.41221172  0.20746963     0.91600
O359        O  0.64049393  0.51204161  0.21404215    -0.81900
O360        O  0.76529160  0.57307223  0.23626762    -0.75500
Al361      Al  0.68705351  0.50209403  0.20085586     1.90100
O362        O  0.68146319  0.55833532  0.24599400    -0.74600
O363        O  0.75455959  0.52124346  0.27841379    -0.74400
O364        O  0.67185794  0.50429784  0.28509868    -0.80100
O365        O  0.74628170  0.46260143  0.25850021    -0.78300
O366        O  0.69782117  0.49307167  0.23533845    -1.14400
O367        O  0.71073102  0.43229901  0.21036496    -0.73600
C368        C  0.73908001  0.46150788  0.19531826     0.97100
C369        C  0.64611924  0.53948312  0.23292647     0.93500
Al370      Al  0.71705762  0.53601024  0.25944829     1.55600
O371        O  0.64454073  0.44349434  0.19183105    -0.78200
C372        C  0.76539915  0.49268486  0.27559124     0.97700
C373        C  0.76066958  0.58412311  0.21219917     0.92500
O374        O  0.72580936  0.56219079  0.19947943    -0.83600
O375        O  0.49150331  0.70351802  0.32109029    -0.83000
C376        C  0.49341778  0.65239434  0.21484947     0.96300
O377        O  0.46447272  0.64708313  0.23233166    -0.72100
O378        O  0.42871673  0.64841535  0.28080746    -0.75700
Al379      Al  0.47262241  0.68967880  0.25812120     1.49000
C380        C  0.42537977  0.61909792  0.29647899     0.91600
O381        O  0.53817765  0.62852312  0.29347258    -0.81900
O382        O  0.60569072  0.74094436  0.28024589    -0.75500
Al383      Al  0.51495497  0.66667330  0.30572129     1.90100
O384        O  0.57284808  0.66208123  0.25582079    -0.74600
O385        O  0.56731510  0.76242654  0.24312423    -0.74400
O386        O  0.53314502  0.68037604  0.21819953    -0.80100
O387        O  0.50014197  0.73256350  0.23091722    -0.78300
O388        O  0.51826297  0.68840178  0.27198431    -1.14400
O389        O  0.48050469  0.73211659  0.28290027    -0.73600
C390        C  0.48382550  0.73137775  0.30891906     0.97100
C391        C  0.56005455  0.63057984  0.27190163     0.93500
Al392      Al  0.56595533  0.70962810  0.25127173     1.55600
O393        O  0.45870230  0.61679198  0.30205921    -0.78200
C394        C  0.53788667  0.76324436  0.22939756     0.97700
C395        C  0.60295057  0.73885277  0.30626854     0.92500
O396        O  0.56905908  0.71068874  0.31757264    -0.83600
O397        O  0.04258176  0.14425146  0.86768855    -0.83000
C398        C  0.98524248  0.17219289  0.96953301     0.96300
O399        O  0.97106262  0.13567642  0.95833718    -0.72100
O400        O  0.93932914  0.08736320  0.91395048    -0.75700
Al401      Al  0.99620560  0.11803141  0.93018729     1.49000
C402        C  0.93319395  0.08011438  0.88852377     0.91600
O403        O  0.96238303  0.18514157  0.88774475    -0.81900
O404        O  0.09042142  0.23819009  0.89693584    -0.75500
Al405      Al  0.00255456  0.16535289  0.87622592     1.90100
O406        O  0.01352699  0.23943373  0.91156212    -0.74600
O407        O  0.08841186  0.20370242  0.94409790    -0.74400
O408        O  0.01619776  0.20566854  0.95935829    -0.80100
O409        O  0.04628107  0.13522850  0.95151171    -0.78300
O410        O  0.01624592  0.16671438  0.91153623    -1.14400
O411        O  0.02173838  0.09751268  0.90346701    -0.73600
C412        C  0.04415623  0.11405775  0.88156063     0.97100
C413        C  0.97407088  0.21735013  0.90416019     0.93500
Al414      Al  0.04947489  0.21783481  0.92663875     1.55600
O415        O  0.95786630  0.10844594  0.87213821    -0.78200
C416        C  0.08140948  0.16916951  0.95539746     0.97700
C417        C  0.08221227  0.24274037  0.87230398     0.92500
O418        O  0.04378046  0.22232094  0.86460850    -0.83600
O419        O  0.82946348  0.37735743  0.99518729    -0.83000
C420        C  0.81169512  0.31186895  0.88781914     0.96300
O421        O  0.78290491  0.31319385  0.90230661    -0.72100
O422        O  0.75138934  0.27491995  0.94955141    -0.75700
Al423      Al  0.78005617  0.33360513  0.93745064     1.49000
C424        C  0.74810256  0.26566126  0.97487744     0.91600
O425        O  0.84762208  0.28390122  0.96917328    -0.81900
O426        O  0.91228570  0.41055574  0.95281604    -0.75500
Al427      Al  0.83769624  0.32978826  0.98274121     1.90100
O428        O  0.89647691  0.32689324  0.93824823    -0.74600
O429        O  0.86548536  0.40748607  0.90950972    -0.74400
O430        O  0.84999303  0.32735595  0.89639898    -0.80100
O431        O  0.80013960  0.38962029  0.92320344    -0.78300
O432        O  0.83161378  0.34298234  0.94812856    -1.14400
O433        O  0.76909968  0.35430003  0.97130056    -0.73600
C434        C  0.79759161  0.38181756  0.98713805     0.97100
C435        C  0.87703396  0.29119305  0.95115984     0.93500
Al436      Al  0.87761672  0.36633772  0.92617770     1.55600
O437        O  0.77834510  0.28891440  0.99092720    -0.78200
C438        C  0.83347725  0.41379888  0.90947665     0.97700
C439        C  0.92047179  0.40290447  0.97695024     0.92500
O440        O  0.89806884  0.36580481  0.98646010    -0.83600
O441        O  0.25928724  0.39247772  0.81628153    -0.83000
C442        C  0.32200750  0.47967387  0.71850282     0.96300
O443        O  0.30950534  0.44259375  0.72833157    -0.72100
O444        O  0.30273722  0.39323595  0.77007511    -0.75700
Al445      Al  0.26586749  0.41353740  0.75552360     1.49000
C446        C  0.33775022  0.41265542  0.78354587     0.91600
O447        O  0.33985091  0.51206740  0.82009513    -0.81900
O448        O  0.27346063  0.52093055  0.80034825    -0.75500
Al449      Al  0.29774648  0.45261005  0.81288167     1.90100
O450        O  0.35282998  0.53864764  0.77831848    -0.74600
O451        O  0.23766220  0.48742055  0.75328831    -0.74400
O452        O  0.31497508  0.50669868  0.73097167    -0.80100
O453        O  0.22708760  0.42647897  0.73597591    -0.78300
O454        O  0.28616425  0.45862362  0.77790015    -1.14400
O455        O  0.21853932  0.37825451  0.78007914    -0.73600
C456        C  0.22370199  0.36937956  0.80464360     0.97100
C457        C  0.36322622  0.54163187  0.80342352     0.93500
Al458      Al  0.29423913  0.50936881  0.76664271     1.55600
O459        O  0.34404939  0.44215292  0.80090438    -0.78200
C460        C  0.21759725  0.45629027  0.73719792     0.97700
C461        C  0.24611705  0.49296407  0.81664806     0.92500
O462        O  0.25045696  0.46130809  0.82474378    -0.83600
O463        O  0.40045792  0.24539796  0.70106821    -0.83000
C464        C  0.48189138  0.30099654  0.80065301     0.96300
O465        O  0.44476211  0.28832598  0.79042104    -0.72100
O466        O  0.39491202  0.27980499  0.74748604    -0.75700
Al467      Al  0.41823845  0.24582285  0.76183858     1.49000
C468        C  0.41588673  0.31842674  0.73923634     0.91600
O469        O  0.51979637  0.33008262  0.70157043    -0.81900
O470        O  0.53043073  0.26270973  0.71793909    -0.75500
Al471      Al  0.46045171  0.28604443  0.70645468     1.90100
O472        O  0.54432271  0.33767385  0.74363211    -0.74600
O473        O  0.49364243  0.22010588  0.76256002    -0.74400
O474        O  0.50927794  0.29377790  0.78866314    -0.80100
O475        O  0.43238184  0.20782582  0.78084066    -0.78300
O476        O  0.46486724  0.26989225  0.74050004    -1.14400
O477        O  0.38704927  0.20061558  0.73536365    -0.73600
C478        C  0.37924625  0.20788672  0.71092636     0.97100
C479        C  0.54920786  0.35038447  0.71893578     0.93500
Al480      Al  0.51535162  0.27797339  0.75229142     1.55600
O481        O  0.44696594  0.32912065  0.72200488    -0.78200
C482        C  0.46206641  0.19842495  0.77832976     0.97700
C483        C  0.50517222  0.23859338  0.69937345     0.92500
O484        O  0.47310813  0.24269712  0.69148828    -0.83600
O485        O  0.14683582  0.02051688  0.65110604    -0.83000
C486        C  0.18318484  0.95642223  0.55515398     0.96300
O487        O  0.14600415  0.94200759  0.56573129    -0.72100
O488        O  0.10071387  0.91089837  0.61111607    -0.75700
Al489      Al  0.12421018  0.96539166  0.59244808     1.49000
C490        C  0.09241490  0.90710037  0.63647473     0.91600
O491        O  0.19962178  0.94774905  0.63791844    -0.81900
O492        O  0.23967720  0.07297030  0.62105955    -0.75500
Al493      Al  0.17342518  0.98418787  0.64645695     1.90100
O494        O  0.25139392  0.00143966  0.61428875    -0.74600
O495        O  0.20437702  0.05785663  0.57218010    -0.74400
O496        O  0.21575642  0.98908208  0.56481306    -0.80100
O497        O  0.13554999  0.01144836  0.56937460    -0.78300
O498        O  0.17345292  0.99258713  0.61048866    -1.14400
O499        O  0.09816005  0.98824289  0.61730147    -0.73600
C500        C  0.11487393  0.01653927  0.63632204     0.97100
C501        C  0.23311280  0.96227675  0.62203155     0.93500
Al502      Al  0.22383466  0.02754833  0.59443411     1.55600
O503        O  0.11831259  0.93586335  0.65210375    -0.78200
C504        C  0.16786165  0.04591190  0.56195175     0.97700
C505        C  0.24645594  0.06854901  0.64610831     0.92500
O506        O  0.22849873  0.03136423  0.65625253    -0.83600
O507        O  0.38711527  0.81308267  0.52272635    -0.83000
C508        C  0.33311007  0.80363936  0.63285401     0.96300
O509        O  0.33242350  0.77354401  0.61884898    -0.72100
O510        O  0.28720181  0.74218349  0.57281072    -0.75700
Al511      Al  0.34737653  0.76788446  0.58224639     1.49000
C512        C  0.27661019  0.73893833  0.54766742     0.91600
O513        O  0.30227278  0.84234702  0.55243619    -0.81900
O514        O  0.42995159  0.89822577  0.56512592    -0.75500
Al515      Al  0.34406059  0.82695004  0.53725657     1.90100
O516        O  0.35035104  0.88920539  0.58174772    -0.74600
O517        O  0.42538505  0.85039717  0.60823727    -0.74400
O518        O  0.34839705  0.84113407  0.62308872    -0.80100
O519        O  0.40476201  0.78522206  0.59338366    -0.78300
O520        O  0.35907263  0.82020011  0.57127075    -1.14400
O521        O  0.36197558  0.75329482  0.54737427    -0.73600
C522        C  0.38882741  0.77949877  0.53012782     0.97100
C523        C  0.31388678  0.87312752  0.56983952     0.93500
Al524      Al  0.38641717  0.86613874  0.59260539     1.55600
O525        O  0.29904017  0.76917269  0.53128620    -0.78200
C526        C  0.43031245  0.81777082  0.60721418     0.97700
C527        C  0.42204982  0.90760094  0.54142855     0.92500
O528        O  0.38464455  0.88622411  0.53182090    -0.83600
O529        O  0.56561520  0.81176283  0.81388374    -0.83000
C530        C  0.50418826  0.79684551  0.70480863     0.96300
O531        O  0.54369098  0.81392174  0.71166797    -0.72100
O532        O  0.56749282  0.87187269  0.74913716    -0.75700
Al533      Al  0.57211632  0.82249554  0.74699070     1.49000
C534        C  0.55686728  0.88842057  0.76825869     0.91600
O535        O  0.45909368  0.80101153  0.79051896    -0.81900
O536        O  0.49003393  0.71009341  0.77735956    -0.75500
Al537      Al  0.51381626  0.80555339  0.79932357     1.90100
O538        O  0.43399060  0.73955580  0.76957403    -0.74600
O539        O  0.51883240  0.73128054  0.72746271    -0.74400
O540        O  0.47407981  0.77335517  0.72143015    -0.80100
O541        O  0.58394190  0.77642756  0.74118479    -0.78300
O542        O  0.52305124  0.79081312  0.76564972    -1.14400
O543        O  0.60966266  0.83739560  0.77865468    -0.73600
C544        C  0.60302718  0.82728102  0.80397613     0.97100
C545        C  0.42753097  0.76540371  0.78386197     0.93500
Al546      Al  0.48259481  0.74280306  0.75035943     1.55600
O547        O  0.53939788  0.86729963  0.79031389    -0.78200
C548        C  0.55866017  0.74424394  0.72720568     0.97700
C549        C  0.48283089  0.71105783  0.80279895     0.92500
O550        O  0.48642154  0.74538495  0.81376873    -0.83600
O551        O  0.71831909  0.13321785  0.69698258    -0.83000
C552        C  0.64492087  0.11427666  0.79823864     0.96300
O553        O  0.67898617  0.11497392  0.79003161    -0.72100
O554        O  0.68474943  0.08261574  0.74216556    -0.75700
Al555      Al  0.71554768  0.13838382  0.75895842     1.49000
C556        C  0.64697064  0.06429586  0.73156654     0.91600
O557        O  0.62774486  0.15674501  0.69910647    -0.81900
O558        O  0.68353129  0.22801339  0.73511680    -0.75500
Al559      Al  0.67387983  0.14600888  0.70626823     1.90100
O560        O  0.60178070  0.15337050  0.73951686    -0.74600
O561        O  0.70074417  0.20963098  0.78488243    -0.74400
O562        O  0.62808328  0.13332239  0.78532900    -0.80100
O563        O  0.74937169  0.19015039  0.77791139    -0.78300
O564        O  0.68159827  0.15470857  0.74213564    -1.14400
O565        O  0.76029277  0.16182240  0.73178580    -0.73600
C566        C  0.75546796  0.15096335  0.70689601     0.97100
C567        C  0.59930634  0.15712825  0.71391029     0.93500
Al568      Al  0.65559696  0.17903283  0.75959848     1.55600
O569        O  0.63518326  0.08509895  0.71494219    -0.78200
C570        C  0.73693265  0.21298130  0.79032282     0.97700
C571        C  0.71191500  0.23700650  0.71604652     0.92500
O572        O  0.71324831  0.20751728  0.70132200    -0.83600
O573        O  0.15425871  0.53022558  0.52792637    -0.83000
C574        C  0.14450129  0.47211856  0.63768403     0.96300
O575        O  0.17513020  0.50526602  0.62678969    -0.72100
O576        O  0.21885126  0.50307316  0.58358517    -0.75700
Al577      Al  0.18670030  0.53182705  0.59173405     1.49000
C578        C  0.22685834  0.49658354  0.55923463     0.91600
O579        O  0.12306443  0.41616776  0.55724447    -0.81900
O580        O  0.06231439  0.48637219  0.56664317    -0.75500
Al581      Al  0.13898962  0.47374073  0.54243969     1.90100
O582        O  0.06724797  0.41306070  0.57894514    -0.74600
O583        O  0.09861109  0.51816240  0.61460876    -0.74400
O584        O  0.10925196  0.44965440  0.62510489    -0.80100
O585        O  0.16333155  0.56727579  0.60278169    -0.78300
O586        O  0.13832633  0.49177194  0.57664836    -1.14400
O587        O  0.20535836  0.56575321  0.55898555    -0.73600
C588        C  0.18468443  0.56523647  0.53752660     0.97100
C589        C  0.08933344  0.39530126  0.57230644     0.93500
Al590      Al  0.08826884  0.46867124  0.59474125     1.55600
O591        O  0.19870846  0.48765904  0.54084535    -0.78200
C592        C  0.12888874  0.55629457  0.61592887     0.97700
C593        C  0.05779520  0.47347887  0.54190413     0.92500
O594        O  0.08007480  0.45701340  0.53332703    -0.83600
O595        O  0.91777244  0.08515199  0.65227364    -0.83000
C596        C  0.97356794  0.14782667  0.54410312     0.96300
O597        O  0.96186951  0.11011187  0.55257446    -0.72100
O598        O  0.00226929  0.09866132  0.59495948    -0.75700
Al599      Al  0.94306821  0.08189586  0.58721733     1.49000
C600        C  0.01735151  0.10346235  0.61912486     0.91600
O601        O  0.01092223  0.19495517  0.62647893    -0.81900
O602        O  0.88384695  0.14719897  0.61421606    -0.75500
Al603      Al  0.96367212  0.13954425  0.63864037     1.90100
O604        O  0.96711221  0.21156168  0.60396487    -0.74600
O605        O  0.88266260  0.11538299  0.56500172    -0.74400
O606        O  0.96695776  0.17396648  0.55796656    -0.80100
O607        O  0.88402714  0.05737756  0.57726470    -0.78300
O608        O  0.94452998  0.12667153  0.60402424    -1.14400
O609        O  0.92307079  0.04594834  0.61862657    -0.73600
C610        C  0.90764517  0.04886636  0.64156839     0.97100
C611        C  0.00409155  0.22224587  0.61354492     0.93500
Al612      Al  0.92648458  0.15931491  0.58684328     1.55600
O613        O  0.00224999  0.11646629  0.63803987    -0.78200
C614        C  0.86625683  0.07518646  0.56429062     0.97700
C615        C  0.89219089  0.15628686  0.63948523     0.92500
O616        O  0.92851816  0.16448820  0.64896293    -0.83600
O617        O  0.60080310  0.41812366  0.97902438    -0.83000
C618        C  0.66662133  0.51181850  0.88064476     0.96300
O619        O  0.68106436  0.49000087  0.89260956    -0.72100
O620        O  0.71072460  0.47438950  0.93840590    -0.75700
Al621      Al  0.65535370  0.44644609  0.91955485     1.49000
C622        C  0.71488580  0.47250285  0.96411389     0.91600
O623        O  0.67644175  0.54125843  0.96536636    -0.81900
O624        O  0.55257724  0.46901953  0.94752514    -0.75500
Al625      Al  0.63852047  0.48017801  0.97326113     1.90100
O626        O  0.63004119  0.54603018  0.93623137    -0.74600
O627        O  0.56186146  0.43735893  0.90198782    -0.74400
O628        O  0.63352524  0.51249480  0.88915775    -0.80100
O629        O  0.60702799  0.41270886  0.89638506    -0.78300
O630        O  0.63021841  0.47179699  0.93727909    -1.14400
O631        O  0.63108101  0.39953599  0.94476011    -0.73600
C632        C  0.60544358  0.38957031  0.96535090     0.97100
C633        C  0.66588138  0.56333042  0.94919811     0.93500
Al634      Al  0.59730694  0.48977526  0.92030570     1.55600
O635        O  0.68610985  0.47149572  0.97933525    -0.78200
C636        C  0.57094032  0.41029533  0.89177695     0.97700
C637        C  0.55712511  0.47841348  0.97264319     0.92500
O638        O  0.59352408  0.49160459  0.98315095    -0.83600
O639        O  0.81990557  0.87078277  0.85880722    -0.83000
C640        C  0.82861434  0.82061652  0.96742160     0.96300
O641        O  0.85966386  0.84872527  0.95336137    -0.72100
O642        O  0.88827816  0.83396323  0.90640265    -0.75700
Al643      Al  0.86623977  0.87140906  0.91715922     1.49000
C644        C  0.88989480  0.82545643  0.88128310     0.91600
O645        O  0.78425510  0.75554687  0.88850666    -0.81900
O646        O  0.73904891  0.83838887  0.90245021    -0.75500
Al647      Al  0.80310020  0.81329214  0.87293386     1.90100
O648        O  0.73864168  0.76165413  0.91675743    -0.74600
O649        O  0.78787047  0.87406899  0.94559128    -0.74400
O650        O  0.79052170  0.80159235  0.95815465    -0.80100
O651        O  0.85330047  0.91417119  0.92964958    -0.78300
O652        O  0.81257570  0.83484975  0.90691226    -1.14400
O653        O  0.88081354  0.90122556  0.88232502    -0.73600
C654        C  0.85388535  0.90448754  0.86669566     0.97100
C655        C  0.75418234  0.73905190  0.90686778     0.93500
Al656      Al  0.76747549  0.82004787  0.92891279     1.55600
O657        O  0.85967860  0.82058699  0.86552346    -0.78200
C658        C  0.82146487  0.90998348  0.94357547     0.97700
C659        C  0.72855131  0.82262701  0.87853268     0.92500
O660        O  0.74466411  0.80068599  0.86913560    -0.83600
O661        O  0.38257067  0.45362086  0.03354840    -0.83000
C662        C  0.31346590  0.45490481  0.13314310     0.96300
O663        O  0.34198364  0.44633596  0.12461345    -0.72100
O664        O  0.34935497  0.41018066  0.07924965    -0.75700
Al665      Al  0.38103039  0.46675425  0.09452392     1.49000
C666        C  0.31040039  0.39169191  0.07097325     0.91600
O667        O  0.29354893  0.48131242  0.03291368    -0.81900
O668        O  0.35668306  0.55946961  0.06039440    -0.75500
Al669      Al  0.33922594  0.46962654  0.04034558     1.90100
O670        O  0.27459337  0.48935528  0.07363382    -0.74600
O671        O  0.38093384  0.55371396  0.11078845    -0.74400
O672        O  0.30525806  0.48144512  0.12084886    -0.80100
O673        O  0.41632982  0.51810726  0.11346105    -0.78300
O674        O  0.35060901  0.48549788  0.07550628    -1.14400
O675        O  0.42601269  0.48606990  0.06732250    -0.73600
C676        C  0.42016523  0.47110479  0.04321729     0.97100
C677        C  0.26801444  0.48632623  0.04810211     0.93500
Al678      Al  0.33096676  0.51818019  0.09002875     1.55600
O679        O  0.29837306  0.41109322  0.05354136    -0.78200
C680        C  0.41185761  0.54977603  0.12001609     0.97700
C681        C  0.38137759  0.56209039  0.04032142     0.92500
O682        O  0.37998054  0.52852969  0.02943433    -0.83600
O683        O  0.24387173  0.16013172  0.14840592    -0.83000
C684        C  0.15957728  0.14293351  0.04997595     0.96300
O685        O  0.19624829  0.16694887  0.06036018    -0.72100
O686        O  0.24459597  0.20601470  0.10316629    -0.75700
Al687      Al  0.22457772  0.15040201  0.08719066     1.49000
C688        C  0.22348296  0.22068312  0.11611936     0.91600
O689        O  0.12412754  0.12400867  0.15174949    -0.81900
O690        O  0.11601597  0.04923562  0.12984350    -0.75500
Al691      Al  0.18357691  0.14038997  0.14465037     1.90100
O692        O  0.09688612  0.11126212  0.11029151    -0.74600
O693        O  0.15140488  0.05053427  0.08275692    -0.74400
O694        O  0.13190772  0.10952258  0.06236482    -0.80100
O695        O  0.21270108  0.10097514  0.06623962    -0.78300
O696        O  0.17854271  0.12484626  0.10930067    -1.14400
O697        O  0.25858086  0.13547445  0.11110020    -0.73600
C698        C  0.26534012  0.14547908  0.13632625     0.97100
C699        C  0.09346493  0.11680924  0.13571705     0.93500
Al700      Al  0.12814971  0.08371508  0.09727455     1.55600
O701        O  0.19400916  0.19724579  0.13343061    -0.78200
C702        C  0.18360959  0.06221458  0.06709600     0.97700
C703        C  0.14254688  0.04890123  0.14718542     0.92500
O704        O  0.17396661  0.08392862  0.15585614    -0.83600
O705        O  0.89718246  0.47765198  0.48254390    -0.83000
C706        C  0.83534854  0.46922999  0.37407337     0.96300
O707        O  0.87446715  0.48464913  0.38126137    -0.72100
O708        O  0.90140239  0.53913422  0.42154305    -0.75700
Al709      Al  0.90221638  0.48789499  0.41597599     1.49000
C710        C  0.88754477  0.55394906  0.44006395     0.91600
O711        O  0.78725374  0.46310565  0.46302376    -0.81900
O712        O  0.81522454  0.37425905  0.44300244    -0.75500
Al713      Al  0.84393861  0.46932071  0.46894982     1.90100
O714        O  0.76177598  0.40685679  0.43680768    -0.74600
O715        O  0.84525065  0.39846192  0.39377913    -0.74400
O716        O  0.80441126  0.44478382  0.38991335    -0.80100
O717        O  0.91114774  0.44067330  0.40719551    -0.78300
O718        O  0.85233594  0.45641206  0.43434662    -1.14400
O719        O  0.93938333  0.49681028  0.44638984    -0.73600
C720        C  0.93337754  0.48903298  0.47185307     0.97100
C721        C  0.75534293  0.43033209  0.45326471     0.93500
Al722      Al  0.81043572  0.41054312  0.41757194     1.55600
O723        O  0.86660509  0.53071490  0.46068489    -0.78200
C724        C  0.88452070  0.40908706  0.39336278     0.97700
C725        C  0.81624120  0.37569908  0.46905836     0.92500
O726        O  0.82099771  0.40913564  0.48196303    -0.83600
O727        O  0.05853342  0.80655364  0.36966886    -0.83000
C728        C  0.02337283  0.82600507  0.48053987     0.96300
O729        O  0.04313672  0.80648142  0.47218149    -0.72100
O730        O  0.01030369  0.74942778  0.43380713    -0.75700
Al731      Al  0.06312412  0.79967749  0.43642611     1.49000
C732        C  0.97932973  0.73434039  0.41721052     0.91600
O733        O  0.96931236  0.82643371  0.39750746    -0.81900
O734        O  0.09216042  0.91273550  0.40606749    -0.75500
Al735      Al  0.01663373  0.81716341  0.38670942     1.90100
O736        O  0.00908049  0.88683005  0.41820174    -0.74600
O737        O  0.10323468  0.89196022  0.45632848    -0.74400
O738        O  0.01865247  0.85249064  0.46528760    -0.80100
O739        O  0.12067965  0.84455628  0.44288143    -0.78300
O740        O  0.04449644  0.83221488  0.41932186    -1.14400
O741        O  0.08626685  0.78819041  0.40391954    -0.73600
C742        C  0.08458998  0.79490176  0.37844662     0.97100
C743        C  0.97546816  0.86292638  0.40489887     0.93500
Al744      Al  0.05474864  0.88146238  0.43493771     1.55600
O745        O  0.97929289  0.75678242  0.39678639    -0.78200
C746        C  0.12853577  0.87691232  0.45708434     0.97700
C747        C  0.08148516  0.90975671  0.38090056     0.92500
O748        O  0.04960928  0.87552591  0.37141501    -0.83600
O749        O  0.26007815  0.74926203  0.32348549    -0.83000
C750        C  0.32817472  0.81798464  0.21878833     0.96300
O751        O  0.32983551  0.78723675  0.23062971    -0.72100
O752        O  0.36769634  0.78953452  0.27840713    -0.75700
Al753      Al  0.30927993  0.75755126  0.26452868     1.49000
C754        C  0.37561125  0.79374530  0.30399735     0.91600
O755        O  0.34387284  0.86743988  0.30205911    -0.81900
O756        O  0.21820641  0.79612412  0.28250920    -0.75500
Al757      Al  0.30237904  0.80831035  0.31337015     1.90100
O758        O  0.29735801  0.87115745  0.27332943    -0.74600
O759        O  0.23114539  0.76410385  0.23715290    -0.74400
O760        O  0.30818459  0.83560671  0.22911677    -0.80100
O761        O  0.25508794  0.72015611  0.24837063    -0.78300
O762        O  0.29263930  0.79354064  0.27791594    -1.14400
O763        O  0.28935175  0.72047409  0.29633504    -0.73600
C764        C  0.26025313  0.71620854  0.31336514     0.97100
C765        C  0.33439338  0.88875210  0.28460443     0.93500
Al766      Al  0.26585585  0.81497250  0.25737023     1.55600
O767        O  0.34932557  0.79690054  0.31995578    -0.78200
C768        C  0.22863718  0.72773585  0.23548157     0.97700
C769        C  0.22186249  0.80748453  0.30742216     0.92500
O770        O  0.25806942  0.82323908  0.31900210    -0.83600
O771        O  0.50085885  0.21026541  0.20625356    -0.83000
C772        C  0.47139888  0.15995911  0.31503766     0.96300
O773        O  0.50250100  0.18441279  0.29931791    -0.72100
O774        O  0.54785896  0.21869148  0.25298568    -0.75700
Al775      Al  0.49648613  0.21426439  0.26921182     1.49000
C776        C  0.55663777  0.19272462  0.24069319     0.91600
O777        O  0.44680804  0.08892210  0.23026954    -0.81900
O778        O  0.37452973  0.12057342  0.23574674    -0.75500
Al779      Al  0.47270959  0.15055787  0.22103607     1.90100
O780        O  0.41140176  0.08314729  0.26861987    -0.74600
O781        O  0.39445766  0.17903711  0.27361153    -0.74400
O782        O  0.43244207  0.14148123  0.30652823    -0.80100
O783        O  0.45710525  0.22489324  0.29005032    -0.78300
O784        O  0.45862852  0.16547477  0.25320006    -1.14400
O785        O  0.49140595  0.24614166  0.24036969    -0.73600
C786        C  0.50176943  0.24433610  0.21561421     0.97100
C787        C  0.42525988  0.06698315  0.25111496     0.93500
Al788      Al  0.40748738  0.13342283  0.26952625     1.55600
O789        O  0.52633940  0.15634260  0.23392576    -0.78200
C790        C  0.41700786  0.21037636  0.28894857     0.97700
C791        C  0.38481694  0.12991036  0.21055927     0.92500
O792        O  0.42311363  0.14350510  0.20285693    -0.83600
C793        C  0.36551926  0.93396777  0.27533002    -0.07300
C794        C  0.36137221  0.94559415  0.24794649    -0.18500
C795        C  0.38488242  0.98811774  0.23815020     0.09900
C796        C  0.41330206  0.02098985  0.25598049    -0.07300
C797        C  0.42004504  0.00907476  0.28265864    -0.18500
C798        C  0.39684064  0.96610582  0.29244286     0.09900
S799        S  0.37344957  0.99923408  0.20374671    -0.33500
S800        S  0.40453556  0.95382561  0.32751502    -0.33500
H801        H  0.44096122  0.99384587  0.33321046     0.27900
H802        H  0.41695646  0.02747246  0.19712856     0.27900
H803        H  0.33839058  0.92144507  0.23406796     0.18500
H804        H  0.44171950  0.03419784  0.29649082     0.18500
C805        C  0.18423982  0.80187201  0.32374773    -0.07300
C806        C  0.17389094  0.77690782  0.34793887    -0.18500
C807        C  0.13961661  0.77124686  0.36509058     0.09900
C808        C  0.11576584  0.79249174  0.35869492    -0.07300
C809        C  0.12550989  0.81645810  0.33386755    -0.18500
C810        C  0.15944658  0.82150940  0.31651034     0.09900
S811        S  0.12758311  0.73561324  0.39431308    -0.33500
S812        S  0.17122909  0.85557461  0.28643755    -0.33500
H813        H  0.21630950  0.87277258  0.28733973     0.27900
H814        H  0.08247378  0.71705186  0.39158128     0.27900
H815        H  0.19244856  0.76117277  0.35335781     0.18500
H816        H  0.10801857  0.83330091  0.32853467     0.18500
C817        C  0.89804211  0.59976584  0.43620187    -0.07300
C818        C  0.90043243  0.61458936  0.40875723    -0.18500
C819        C  0.92260348  0.65860689  0.40193272     0.09900
C820        C  0.94421080  0.68924879  0.42285564    -0.07300
C821        C  0.93780372  0.67461738  0.45059499    -0.18500
C822        C  0.91463786  0.63065310  0.45747199     0.09900
S823        S  0.92619177  0.67296743  0.36594003    -0.33500
S824        S  0.91178171  0.61609000  0.49337859    -0.33500
H825        H  0.86734506  0.58629008  0.49247366     0.27900
H826        H  0.91387296  0.70448403  0.37057853     0.27900
H827        H  0.88710328  0.59141929  0.39212867     0.18500
H828        H  0.95308233  0.69758977  0.46712982     0.18500
C829        C  0.35291914  0.12810053  0.18969910    -0.07300
C830        C  0.36865269  0.15345874  0.16544816    -0.18500
C831        C  0.34101783  0.15887454  0.14708306     0.09900
C832        C  0.29640585  0.13845622  0.15282184    -0.07300
C833        C  0.28040042  0.11157941  0.17616088    -0.18500
C834        C  0.30777533  0.10537098  0.19416960     0.09900
S835        S  0.36495584  0.19404523  0.11770072    -0.33500
S836        S  0.28273546  0.06714086  0.22189979    -0.33500
H837        H  0.31095261  0.04999009  0.21968671     0.27900
H838        H  0.33550770  0.20974833  0.11671765     0.27900
H839        H  0.40307619  0.17101268  0.16133201     0.18500
H840        H  0.24599947  0.09491256  0.18034996     0.18500
C841        C  0.23566196  0.26614624  0.11029082    -0.07300
C842        C  0.21900651  0.27570086  0.08642034    -0.18500
C843        C  0.24089935  0.31651301  0.07336167     0.09900
C844        C  0.28101627  0.34846304  0.08398049    -0.07300
C845        C  0.29502809  0.33937565  0.10929918    -0.18500
C846        C  0.27294682  0.29930601  0.12241530     0.09900
S847        S  0.21716263  0.32485175  0.04276722    -0.33500
S848        S  0.29598587  0.29119335  0.15357431    -0.33500
H849        H  0.25686471  0.25827514  0.16437183     0.27900
H850        H  0.25551215  0.34158616  0.02715402     0.27900
H851        H  0.19030898  0.25028351  0.07683136     0.18500
H852        H  0.32442240  0.36346994  0.11899121     0.18500
C853        C  0.69476543  0.61006000  0.94379651    -0.07300
C854        C  0.73035818  0.62319186  0.92575018    -0.18500
C855        C  0.75107639  0.66466072  0.91339369     0.09900
C856        C  0.73526391  0.69377044  0.91839085    -0.07300
C857        C  0.70015993  0.68022748  0.93710500    -0.18500
C858        C  0.68038359  0.63962302  0.94974365     0.09900
S859        S  0.79663844  0.67789087  0.89119640    -0.33500
S860        S  0.63532392  0.62660107  0.97261364    -0.33500
H861        H  0.63982347  0.59579838  0.98841842     0.27900
H862        H  0.82351167  0.71694303  0.90474915     0.27900
H863        H  0.74110487  0.60038606  0.92045931     0.18500
H864        H  0.68721136  0.70135177  0.94209387     0.18500
C865        C  0.45605542  0.47314907  0.02590119    -0.07300
C866        C  0.44593097  0.45470182  0.99928011    -0.18500
C867        C  0.47741030  0.45493059  0.98167168     0.09900
C868        C  0.52105641  0.47523632  0.99022105    -0.07300
C869        C  0.53123475  0.49374783  0.01679150    -0.18500
C870        C  0.49961773  0.49284066  0.03471131     0.09900
S871        S  0.45906606  0.42770376  0.94900409    -0.33500
S872        S  0.51620412  0.51715465  0.06852172    -0.33500
H873        H  0.56071939  0.53184729  0.06569795     0.27900
H874        H  0.47991342  0.40301365  0.95249695     0.27900
H875        H  0.41282893  0.43918176  0.99205840     0.18500
H876        H  0.56447102  0.50933366  0.02364029     0.18500
C877        C  0.02669309  0.47783918  0.52308021    -0.07300
C878        C  0.00518684  0.49959391  0.53293106    -0.18500
C879        C  0.97639121  0.50583900  0.51630327     0.09900
C880        C  0.96816843  0.48979131  0.48904790    -0.07300
C881        C  0.99004287  0.46891165  0.47884120    -0.18500
C882        C  0.01886972  0.46239359  0.49537145     0.09900
S883        S  0.95196429  0.53547179  0.53084231    -0.33500
S884        S  0.04344722  0.43279360  0.48056080    -0.33500
H885        H  0.02672045  0.42828610  0.45366057     0.27900
H886        H  0.94938626  0.55393322  0.50565054     0.27900
H887        H  0.01104504  0.51232298  0.55377101     0.18500
H888        H  0.98293485  0.45594421  0.45807618     0.18500
C889        C  0.03727046  0.26785569  0.60941972    -0.07300
C890        C  0.06670154  0.27900980  0.58721610    -0.18500
C891        C  0.08532788  0.32021305  0.57460410     0.09900
C892        C  0.07427495  0.35112849  0.58431731    -0.07300
C893        C  0.04672542  0.33999149  0.60765436    -0.18500
C894        C  0.02914956  0.29971026  0.62037690     0.09900
S895        S  0.11970190  0.32982677  0.54502752    -0.33500
S896        S  0.99397874  0.28968842  0.64977673    -0.33500
H897        H  0.99977317  0.25644339  0.66114467     0.27900
H898        H  0.09976442  0.34819697  0.52900378     0.27900
H899        H  0.07251738  0.25446054  0.57825274     0.18500
H900        H  0.03855321  0.36303240  0.61650168     0.18500
C901        C  0.79244359  0.15687689  0.68979394    -0.07300
C902        C  0.82602698  0.15334969  0.70251958    -0.18500
C903        C  0.85956902  0.15375898  0.68693324     0.09900
C904        C  0.85957228  0.15806978  0.65772346    -0.07300
C905        C  0.82663675  0.16308244  0.64523354    -0.18500
C906        C  0.79362666  0.16309036  0.66084441     0.09900
S907        S  0.89982405  0.14567723  0.70483705    -0.33500
S908        S  0.75512684  0.17297357  0.64257938    -0.33500
H909        H  0.75847199  0.20404566  0.66170465     0.27900
H910        H  0.88721011  0.14869357  0.73198101     0.27900
H911        H  0.82491985  0.14837952  0.72467869     0.18500
H912        H  0.82672026  0.16747992  0.62302955     0.18500
C913        C  0.63863318  0.83216815  0.82264992    -0.07300
C914        C  0.63326930  0.83375558  0.85151105    -0.18500
C915        C  0.66270842  0.83244809  0.87049806     0.09900
C916        C  0.69864937  0.82968977  0.86049606    -0.07300
C917        C  0.70539196  0.83083297  0.83175713    -0.18500
C918        C  0.67593905  0.83155597  0.81289544     0.09900
S919        S  0.65225964  0.83119461  0.90718012    -0.33500
S920        S  0.68622267  0.82758330  0.77685030    -0.33500
H921        H  0.64735994  0.78867661  0.77371343     0.27900
H922        H  0.61441065  0.83446793  0.90521909     0.27900
H923        H  0.60507878  0.83465771  0.85926163     0.18500
H924        H  0.73323229  0.82938407  0.82376846     0.18500
C925        C  0.56870765  0.93418756  0.76370749    -0.07300
C926        C  0.55824025  0.94541266  0.73787562    -0.18500
C927        C  0.58201104  0.98728216  0.72668564     0.09900
C928        C  0.61742808  0.01920317  0.74151285    -0.07300
C929        C  0.62586410  0.00819473  0.76808535    -0.18500
C930        C  0.60179468  0.96683706  0.77933799     0.09900
S931        S  0.56812625  0.99646675  0.69249492    -0.33500
S932        S  0.61784620  0.95656299  0.81258081    -0.33500
H933        H  0.57526489  0.93070303  0.82207115     0.27900
H934        H  0.61117693  0.01982010  0.68323222     0.27900
H935        H  0.53355075  0.92035567  0.72525616     0.18500
H936        H  0.65197616  0.03203000  0.78045681     0.18500
C937        C  0.24518403  0.69680447  0.53602960    -0.07300
C938        C  0.26217054  0.67605275  0.51972283    -0.18500
C939        C  0.23812920  0.63204504  0.51418998     0.09900
C940        C  0.19665887  0.60780620  0.52577920    -0.07300
C941        C  0.17712091  0.62995032  0.53802535    -0.18500
C942        C  0.20101147  0.67454869  0.54301949     0.09900
S943        S  0.26392270  0.60730914  0.49532247    -0.33500
S944        S  0.17443358  0.70077712  0.55949800    -0.33500
H945        H  0.20532388  0.74306326  0.55216095     0.27900
H946        H  0.22568558  0.56872571  0.48978637     0.27900
H947        H  0.29558512  0.69346734  0.51313191     0.18500
H948        H  0.14487951  0.61179145  0.54666660     0.18500
C949        C  0.46167183  0.81495053  0.62610840    -0.07300
C950        C  0.45303650  0.77356329  0.63430791    -0.18500
C951        C  0.46851867  0.76712732  0.65944206     0.09900
C952        C  0.49320019  0.80274034  0.67658213    -0.07300
C953        C  0.50697226  0.84440157  0.66677056    -0.18500
C954        C  0.49200585  0.85094752  0.64149650     0.09900
S955        S  0.45573407  0.71334965  0.66979684    -0.33500
S956        S  0.51178931  0.90582486  0.63060012    -0.33500
H957        H  0.50797125  0.89555521  0.60236638     0.27900
H958        H  0.43705795  0.69304719  0.64463236     0.27900
H959        H  0.43108738  0.74578186  0.62231017     0.18500
H960        H  0.52802894  0.87188896  0.67936795     0.18500
C961        C  0.04928163  0.08934777  0.62642194    -0.07300
C962        C  0.04146641  0.06375927  0.65036311    -0.18500
C963        C  0.06530327  0.04259247  0.65605503     0.09900
C964        C  0.09845374  0.04761524  0.63778655    -0.07300
C965        C  0.10812515  0.07555824  0.61496879    -0.18500
C966        C  0.08414199  0.09636510  0.60908179     0.09900
S967        S  0.04902566  0.00637631  0.68523991    -0.33500
S968        S  0.09873713  0.13018548  0.57869592    -0.33500
H969        H  0.08483216  0.15833869  0.58899371     0.27900
H970        H  0.08883682  0.00742471  0.68875141     0.27900
H971        H  0.01465174  0.05786340  0.66383772     0.18500
H972        H  0.13308615  0.07920789  0.60059293     0.18500
C973        C  0.28716735  0.89330629  0.57728843    -0.07300
C974        C  0.24736468  0.86950327  0.59115497    -0.18500
C975        C  0.22921851  0.89016140  0.60712225     0.09900
C976        C  0.25140347  0.93570877  0.60960958    -0.07300
C977        C  0.29064178  0.95877176  0.59486895    -0.18500
C978        C  0.30762624  0.93856006  0.57840182     0.09900
S979        S  0.17838784  0.85672540  0.62402197    -0.33500
S980        S  0.35684349  0.97270716  0.55961194    -0.33500
H981        H  0.34923402  0.94306926  0.53825602     0.27900
H982        H  0.19317270  0.87619348  0.64997826     0.27900
H983        H  0.23168667  0.83465940  0.59101194     0.18500
H984        H  0.30844752  0.99362023  0.59546318     0.18500
C985        C  0.18706965  0.93680657  0.52931411    -0.07300
C986        C  0.16832946  0.89196297  0.52804965    -0.18500
C987        C  0.15727405  0.87068989  0.50260177     0.09900
C988        C  0.16291004  0.89462284  0.47806299    -0.07300
C989        C  0.18762542  0.93964018  0.47911885    -0.18500
C990        C  0.19986070  0.96111553  0.50456650     0.09900
S991        S  0.12918060  0.81275280  0.50330133    -0.33500
S992        S  0.22487027  0.01917583  0.50514770    -0.33500
H993        H  0.23211374  0.02574535  0.47648129     0.27900
H994        H  0.14593983  0.80876293  0.47777029     0.27900
H995        H  0.15917420  0.87326230  0.54703225     0.18500
H996        H  0.19187088  0.95797210  0.46033760     0.18500
C997        C  0.56649477  0.16693930  0.70147039    -0.07300
C998        C  0.52536227  0.15016464  0.71351372    -0.18500
C999        C  0.49785189  0.16665424  0.70639906     0.09900
C1000       C  0.51350473  0.20399065  0.68975043    -0.07300
C1001       C  0.55171923  0.21679608  0.67487169    -0.18500
C1002       C  0.57748679  0.19745746  0.67963985     0.09900
S1003       S  0.44430215  0.14145788  0.72100070    -0.33500
S1004       S  0.62629241  0.21588259  0.65953756    -0.33500
H1005       H  0.61699495  0.23907700  0.63962911     0.27900
H1006       H  0.42779124  0.15954608  0.70190578     0.27900
H1007       H  0.51504893  0.12496501  0.72899219     0.18500
H1008       H  0.56375685  0.24508966  0.66177769     0.18500
C1009       C  0.27758119  0.10578602  0.66301424    -0.07300
C1010       C  0.31214044  0.14042320  0.64955279    -0.18500
C1011       C  0.34568401  0.17393242  0.66443697     0.09900
C1012       C  0.34473612  0.17325560  0.69386988    -0.07300
C1013       C  0.30968657  0.13895118  0.70728691    -0.18500
C1014       C  0.27597810  0.10591942  0.69234467     0.09900
S1015       S  0.39057038  0.21540788  0.64516110    -0.33500
S1016       S  0.23108721  0.06596477  0.71210247    -0.33500
H1017       H  0.19968685  0.06448968  0.69373043     0.27900
H1018       H  0.37490511  0.20049126  0.61841919     0.27900
H1019       H  0.31370863  0.14032485  0.62718836     0.18500
H1020       H  0.30795472  0.13832559  0.72968458     0.18500
C1021       C  0.49533423  0.32486982  0.82692696    -0.07300
C1022       C  0.51471367  0.31081886  0.84672028    -0.18500
C1023       C  0.53748373  0.33677015  0.86922509     0.09900
C1024       C  0.54035546  0.37753778  0.87229613    -0.07300
C1025       C  0.51751510  0.38971417  0.85393280    -0.18500
C1026       C  0.49631940  0.36458566  0.83086279     0.09900
S1027       S  0.56308721  0.31768861  0.89352368    -0.33500
S1028       S  0.47628567  0.38776587  0.80569008    -0.33500
H1029       H  0.48959471  0.37376827  0.78231646     0.27900
H1030       H  0.55014461  0.27756097  0.88103692     0.27900
H1031       H  0.51378375  0.28023312  0.84367322     0.18500
H1032       H  0.51959079  0.42097612  0.85605518     0.18500
C1033       C  0.46456540  0.66862972  0.81714947    -0.07300
C1034       C  0.47407864  0.63837634  0.80472543    -0.18500
C1035       C  0.44241477  0.59521842  0.80196470     0.09900
C1036       C  0.40111839  0.58127002  0.81329498    -0.07300
C1037       C  0.39459616  0.60927266  0.83065020    -0.18500
C1038       C  0.42649356  0.65274251  0.83320418     0.09900
S1039       S  0.45502580  0.56063329  0.78127391    -0.33500
S1040       S  0.41544594  0.68697664  0.85517806    -0.33500
H1041       H  0.45913188  0.71488895  0.86148462     0.27900
H1042       H  0.42379821  0.52168555  0.79323941     0.27900
H1043       H  0.50416393  0.64959274  0.79349172     0.18500
H1044       H  0.36343590  0.59820477  0.84048378     0.18500
C1045       C  0.36967251  0.39816811  0.77831464    -0.07300
C1046       C  0.39635920  0.41401736  0.75472478    -0.18500
C1047       C  0.41326002  0.39004298  0.74150224     0.09900
C1048       C  0.40291546  0.34891576  0.75190553    -0.07300
C1049       C  0.37873832  0.33512110  0.77675812    -0.18500
C1050       C  0.36283737  0.35926567  0.79002304     0.09900
S1051       S  0.44500539  0.41233464  0.71069404    -0.33500
S1052       S  0.33130057  0.33718092  0.82099738    -0.33500
H1053       H  0.33983092  0.37707929  0.83204781     0.27900
H1054       H  0.42222352  0.37432145  0.69525212     0.27900
H1055       H  0.40140374  0.44378000  0.74539188     0.18500
H1056       H  0.37168736  0.30476902  0.78623163     0.18500
C1057       C  0.18644595  0.45691455  0.71701841    -0.07300
C1058       C  0.16347778  0.42026869  0.70031275    -0.18500
C1059       C  0.14637953  0.42302241  0.67477519     0.09900
C1060       C  0.15067360  0.46268620  0.66636974    -0.07300
C1061       C  0.16798386  0.49754780  0.68465992    -0.18500
C1062       C  0.18641392  0.49559543  0.70974134     0.09900
S1063       S  0.12541084  0.37780864  0.65163415    -0.33500
S1064       S  0.21431513  0.54480529  0.72959727    -0.33500
H1065       H  0.19780177  0.56826979  0.71555384     0.27900
H1066       H  0.12110900  0.34689762  0.67141408     0.27900
H1067       H  0.16278030  0.39045464  0.70586060     0.18500
H1068       H  0.17032851  0.52774145  0.67806355     0.18500
C1069       C  0.79387801  0.42072600  0.99260800    -0.07300
C1070       C  0.81058729  0.45277560  0.97190716    -0.18500
C1071       C  0.78810519  0.47447212  0.96363107     0.09900
C1072       C  0.74893102  0.46466306  0.97687395    -0.07300
C1073       C  0.73837057  0.44028734  0.00155078    -0.18500
C1074       C  0.75967506  0.41740025  0.00906986     0.09900
S1075       S  0.80900281  0.51383892  0.93613501    -0.33500
S1076       S  0.73805290  0.37966439  0.03740242    -0.33500
H1077       H  0.77451399  0.37419610  0.04054036     0.27900
H1078       H  0.84830986  0.51363771  0.93279616     0.27900
H1079       H  0.83815526  0.45686442  0.95993252     0.18500
H1080       H  0.71032142  0.43502952  0.01346763     0.18500
C1081       C  0.79943660  0.29264108  0.86015498    -0.07300
C1082       C  0.81455399  0.26536633  0.85042160    -0.18500
C1083       C  0.79719840  0.24086361  0.82636060     0.09900
C1084       C  0.76345681  0.24333788  0.81220183    -0.07300
C1085       C  0.75136477  0.27347009  0.82090422    -0.18500
C1086       C  0.76950686  0.29858173  0.84413844     0.09900
S1087       S  0.81688454  0.20503398  0.81565797    -0.33500
S1088       S  0.75368246  0.33840560  0.85182905    -0.33500
H1089       H  0.79577868  0.36948015  0.85923740     0.27900
H1090       H  0.85815615  0.22956762  0.82730251     0.27900
H1091       H  0.83819992  0.26147154  0.86240300     0.18500
H1092       H  0.72717089  0.27747601  0.80961045     0.18500
C1093       C  0.18826563  0.33327227  0.82059685    -0.07300
C1094       C  0.14575496  0.31407154  0.81049226    -0.18500
C1095       C  0.11065023  0.28339895  0.82607752     0.09900
C1096       C  0.11753827  0.27207712  0.85307983    -0.07300
C1097       C  0.16016631  0.28974408  0.86251978    -0.18500
C1098       C  0.19534892  0.31966534  0.84685424     0.09900
S1099       S  0.05820138  0.26076189  0.81019673    -0.33500
S1100       S  0.24871076  0.33881089  0.86122309    -0.33500
H1101       H  0.23598636  0.32494460  0.88861998     0.27900
H1102       H  0.05037590  0.21816388  0.81296512     0.27900
H1103       H  0.13957320  0.32348436  0.79040260     0.18500
H1104       H  0.16613849  0.27998069  0.88251783     0.18500
C1105       C  0.90255076  0.03679302  0.87724640    -0.07300
C1106       C  0.91680577  0.02239986  0.85444249    -0.18500
C1107       C  0.89619595  0.97895192  0.84684041     0.09900
C1108       C  0.86055781  0.94860596  0.86221421    -0.07300
C1109       C  0.84216867  0.96400523  0.88198552    -0.18500
C1110       C  0.86291512  0.00769575  0.88979275     0.09900
S1111       S  0.91813713  0.96364367  0.81824796    -0.33500
S1112       S  0.83802573  0.02428894  0.91602978    -0.33500
H1113       H  0.85673415  0.06739843  0.90720541     0.27900
H1114       H  0.88015188  0.92454864  0.81323800     0.27900
H1115       H  0.94620097  0.04451956  0.84362760     0.18500
H1116       H  0.81351643  0.94125793  0.89314632     0.18500
C1117       C  0.94277309  0.22900556  0.91739976    -0.07300
C1118       C  0.95414851  0.24922352  0.94353306    -0.18500
C1119       C  0.92876123  0.26345832  0.95727856     0.09900
C1120       C  0.89157846  0.25968805  0.94447445    -0.07300
C1121       C  0.87831523  0.23723952  0.91919625    -0.18500
C1122       C  0.90284501  0.22080102  0.90592428     0.09900
S1123       S  0.94762256  0.28984545  0.99016073    -0.33500
S1124       S  0.88448208  0.19269804  0.87354683    -0.33500
H1125       H  0.84245133  0.18718458  0.87500057     0.27900
H1126       H  0.90664474  0.28029967  0.00016880     0.27900
H1127       H  0.98377760  0.25494044  0.95344546     0.18500
H1128       H  0.85019312  0.23509517  0.90896531     0.18500
C1129       C  0.11287300  0.16745584  0.97468745    -0.07300
C1130       C  0.10932681  0.12698085  0.97949213    -0.18500
C1131       C  0.12725787  0.11922809  0.00298905     0.09900
C1132       C  0.14848867  0.15244428  0.02251538    -0.07300
C1133       C  0.15703474  0.19424268  0.01603133    -0.18500
C1134       C  0.14020244  0.20232232  0.99195390     0.09900
S1135       S  0.12218820  0.06658244  0.00788402    -0.33500
S1136       S  0.15209396  0.25688624  0.98573016    -0.33500
H1137       H  0.16370805  0.25661946  0.95790124     0.27900
H1138       H  0.10684312  0.05063856  0.98123773     0.27900
H1139       H  0.09030195  0.10062617  0.96557153     0.18500
H1140       H  0.17524196  0.22029417  0.03030240     0.18500
C1141       C  0.47388213  0.76209821  0.32356723    -0.07300
C1142       C  0.43659641  0.74482492  0.33990812    -0.18500
C1143       C  0.40625708  0.75930251  0.33659835     0.09900
C1144       C  0.41264069  0.78983204  0.31561717    -0.07300
C1145       C  0.45406919  0.81312306  0.30399749    -0.18500
C1146       C  0.48582675  0.80147207  0.30987499     0.09900
S1147       S  0.35784869  0.73528682  0.35719158    -0.33500
S1148       S  0.53962689  0.83358337  0.29616529    -0.33500
H1149       H  0.55744661  0.81106208  0.31001323     0.27900
H1150       H  0.37030601  0.71217486  0.37515615     0.27900
H1151       H  0.42824928  0.71624357  0.35209747     0.18500
H1152       H  0.46129237  0.83943993  0.28985447     0.18500
C1153       C  0.47962955  0.62770706  0.18925873    -0.07300
C1154       C  0.47149016  0.64713003  0.16652252    -0.18500
C1155       C  0.45062451  0.62319581  0.14294273     0.09900
C1156       C  0.44018732  0.57952230  0.14149683    -0.07300
C1157       C  0.45105223  0.56111911  0.16371180    -0.18500
C1158       C  0.46892447  0.58406275  0.18797730     0.09900
S1159       S  0.43558426  0.64826794  0.11586465    -0.33500
S1160       S  0.47402884  0.55430699  0.21672638    -0.33500
H1161       H  0.48258832  0.58427391  0.23786551     0.27900
H1162       H  0.45710305  0.69043681  0.12639378     0.27900
H1163       H  0.47896539  0.68043023  0.16808291     0.18500
H1164       H  0.44203396  0.52730516  0.16318512     0.18500
C1165       C  0.52120525  0.28550283  0.20001423    -0.07300
C1166       C  0.55941228  0.29791100  0.18506649    -0.18500
C1167       C  0.59021944  0.34163459  0.18241122     0.09900
C1168       C  0.58410137  0.37281128  0.19673558    -0.07300
C1169       C  0.54317896  0.36098614  0.20746260    -0.18500
C1170       C  0.51085378  0.31767930  0.20775931     0.09900
S1171       S  0.63832102  0.35543339  0.16285994    -0.33500
S1172       S  0.45755682  0.30308370  0.22027223    -0.33500
H1173       H  0.46435829  0.34531195  0.22281849     0.27900
H1174       H  0.64456147  0.39571407  0.15403634     0.27900
H1175       H  0.56721106  0.27374040  0.17778484     0.18500
H1176       H  0.53758574  0.38512030  0.21733847     0.18500
C1177       C  0.61264745  0.55117833  0.24119960    -0.07300
C1178       C  0.60261969  0.54981631  0.26967718    -0.18500
C1179       C  0.58149410  0.57151499  0.28047218     0.09900
C1180       C  0.57149637  0.59691689  0.26271455    -0.07300
C1181       C  0.57887320  0.59537799  0.23396824    -0.18500
C1182       C  0.59861326  0.57274196  0.22315358     0.09900
S1183       S  0.57187676  0.56870773  0.31713129    -0.33500
S1184       S  0.60997906  0.57726977  0.18661272    -0.33500
H1185       H  0.59797445  0.53363252  0.18334995     0.27900
H1186       H  0.52890122  0.56000488  0.31422201     0.27900
H1187       H  0.61317263  0.53328350  0.28390073     0.18500
H1188       H  0.57087611  0.61378177  0.21956347     0.18500
C1189       C  0.79610582  0.49098639  0.29540870    -0.07300
C1190       C  0.79098009  0.45026683  0.30191466    -0.18500
C1191       C  0.80618613  0.44322509  0.32694004     0.09900
C1192       C  0.82582573  0.47723990  0.34597665    -0.07300
C1193       C  0.83630203  0.51900480  0.33799645    -0.18500
C1194       C  0.82247876  0.52640815  0.31252437     0.09900
S1195       S  0.79978941  0.39071516  0.33464482    -0.33500
S1196       S  0.83860303  0.58134245  0.30333326    -0.33500
H1197       H  0.83701951  0.57441393  0.27458138     0.27900
H1198       H  0.78242474  0.37190909  0.30893952     0.27900
H1199       H  0.77233111  0.42322092  0.28840703     0.18500
H1200       H  0.85405855  0.54564258  0.35196879     0.18500
C1201       C  0.86153510  0.67959388  0.16157468    -0.07300
C1202       C  0.81976439  0.67424864  0.16028651    -0.18500
C1203       C  0.78715362  0.64589194  0.17818334     0.09900
C1204       C  0.79591052  0.62121040  0.19756721    -0.07300
C1205       C  0.83793190  0.62723428  0.19929435    -0.18500
C1206       C  0.87054781  0.65557094  0.18132964     0.09900
S1207       S  0.73525830  0.64346840  0.17558372    -0.33500
S1208       S  0.92198469  0.65704595  0.18333229    -0.33500
H1209       H  0.92980434  0.66137728  0.15463723     0.27900
H1210       H  0.72470584  0.63466408  0.20380424     0.27900
H1211       H  0.81274002  0.69318459  0.14571406     0.18500
H1212       H  0.84475906  0.60774072  0.21351904     0.18500
C1213       C  0.08401975  0.91723020  0.14402458    -0.07300
C1214       C  0.12133991  0.94190872  0.12812829    -0.18500
C1215       C  0.14944270  0.98533959  0.13479807     0.09900
C1216       C  0.13659138  0.00602710  0.15449886    -0.07300
C1217       C  0.10329526  0.98035418  0.17279197    -0.18500
C1218       C  0.07926803  0.93566553  0.16900518     0.09900
S1219       S  0.20134242  0.01497675  0.11815260    -0.33500
S1220       S  0.04294218  0.90475761  0.19644897    -0.33500
H1221       H  0.05404677  0.87185461  0.19524021     0.27900
H1222       H  0.19698508  0.98133091  0.10088121     0.27900
H1223       H  0.12797357  0.92757662  0.11035507     0.18500
H1224       H  0.09464571  0.99532534  0.18926700     0.18500
C1225       C  0.83758133  0.81207099  0.99570170    -0.07300
C1226       C  0.82399552  0.76984141  0.00442719    -0.18500
C1227       C  0.83869191  0.76190109  0.02951966     0.09900
C1228       C  0.86857484  0.79720417  0.04571145    -0.07300
C1229       C  0.87661259  0.83870698  0.03863735    -0.18500
C1230       C  0.86178302  0.84653378  0.01381697     0.09900
S1231       S  0.82036040  0.70647766  0.03841120    -0.33500
S1232       S  0.87568381  0.90111394  0.00510399    -0.33500
H1233       H  0.89121796  0.91927523  0.03128248     0.27900
H1234       H  0.81439789  0.71218157  0.06658064     0.27900
H1235       H  0.80371484  0.74314093  0.99104435     0.18500
H1236       H  0.89760171  0.86578656  0.05149838     0.18500
C1237       C  0.18153557  0.53216575  0.02696061    -0.07300
C1238       C  0.21843680  0.54440404  0.01081363    -0.18500
C1239       C  0.24398567  0.52476505  0.01438182     0.09900
C1240       C  0.23394865  0.49406664  0.03585498    -0.07300
C1241       C  0.19340178  0.47707030  0.04874437    -0.18500
C1242       C  0.16619807  0.49466524  0.04334100     0.09900
S1243       S  0.29184216  0.54458863  0.99340453    -0.33500
S1244       S  0.11342496  0.47183726  0.05909393    -0.33500
H1245       H  0.11655316  0.44000637  0.07462131     0.27900
H1246       H  0.28360875  0.50317838  0.98569985     0.27900
H1247       H  0.22971954  0.57209903  0.99730347     0.18500
H1248       H  0.18414082  0.45171249  0.06398687     0.18500
C1249       C  0.03474794  0.72548017  0.10984480    -0.07300
C1250       C  0.04379354  0.72671763  0.08131510    -0.18500
C1251       C  0.06328123  0.70404349  0.06997212     0.09900
C1252       C  0.07451929  0.67970492  0.08754942    -0.07300
C1253       C  0.06658981  0.67937515  0.11619362    -0.18500
C1254       C  0.04710255  0.70195038  0.12752282     0.09900
S1255       S  0.06870484  0.70211219  0.03294526    -0.33500
S1256       S  0.03419458  0.69481390  0.16388189    -0.33500
H1257       H  0.03698111  0.73507506  0.16800769     0.27900
H1258       H  0.03796715  0.71472325  0.02615417     0.27900
H1259       H  0.03283378  0.74327172  0.06759231     0.18500
H1260       H  0.07359233  0.65938890  0.12977431     0.18500
C1261       C  0.01695364  0.50506423  0.02812172    -0.07300
C1262       C  0.99379850  0.46290293  0.03838664    -0.18500
C1263       C  0.96335425  0.42884393  0.02226322     0.09900
C1264       C  0.95496746  0.43681096  0.99463026    -0.07300
C1265       C  0.97861192  0.47884127  0.98417257    -0.18500
C1266       C  0.00938195  0.51288618  0.00028193     0.09900
S1267       S  0.93572281  0.37597809  0.03821406    -0.33500
S1268       S  0.03798432  0.56570647  0.98440259    -0.33500
H1269       H  0.01935920  0.55439222  0.95795220     0.27900
H1270       H  0.96182560  0.38540949  0.06186844     0.27900
H1271       H  0.99947318  0.45651623  0.05942601     0.18500
H1272       H  0.97253765  0.48518634  0.96321643     0.18500
C1273       C  0.16066463  0.64504352  0.16785478    -0.07300
C1274       C  0.14950999  0.67610502  0.17596181    -0.18500
C1275       C  0.16747401  0.70103297  0.19988608     0.09900
C1276       C  0.19798938  0.69512440  0.21567337    -0.07300
C1277       C  0.20513133  0.66077397  0.20890546    -0.18500
C1278       C  0.18653538  0.63561257  0.18560362     0.09900
S1279       S  0.15186269  0.74068585  0.20924744    -0.33500
S1280       S  0.19771711  0.59219017  0.17931212    -0.33500
H1281       H  0.15562557  0.56463410  0.16998952     0.27900
H1282       H  0.12653300  0.73596684  0.18580720     0.27900
H1283       H  0.12876956  0.68252596  0.16274362     0.18500
H1284       H  0.22707479  0.65447580  0.22109159     0.18500
C1285       C  0.89002411  0.91263860  0.37944831    -0.07300
C1286       C  0.93465473  0.93987241  0.38250431    -0.18500
C1287       C  0.96162606  0.92486011  0.39276808     0.09900
C1288       C  0.94591403  0.87997741  0.39626399    -0.07300
C1289       C  0.90200985  0.85187917  0.39017238    -0.18500
C1290       C  0.87374376  0.86780518  0.38283689     0.09900
S1291       S  0.01420682  0.96589200  0.40390761    -0.33500
S1292       S  0.81679245  0.83012253  0.38119448    -0.33500
H1293       H  0.80846098  0.85148420  0.35957504     0.27900
H1294       H  0.00544344  0.95367230  0.43191268     0.27900
H1295       H  0.94757577  0.97443396  0.38086804     0.18500
H1296       H  0.88905079  0.81750671  0.39271754     0.18500
C1297       C  0.63866141  0.77134451  0.32383135    -0.07300
C1298       C  0.66910096  0.81034920  0.31164363    -0.18500
C1299       C  0.70012665  0.84430317  0.32747785     0.09900
C1300       C  0.69999544  0.84066681  0.35678051    -0.07300
C1301       C  0.67090085  0.80098198  0.36884932    -0.18500
C1302       C  0.64122340  0.76625997  0.35283302     0.09900
S1303       S  0.73946020  0.89069097  0.30856518    -0.33500
S1304       S  0.60847854  0.71627277  0.37090408    -0.33500
H1305       H  0.61225343  0.69064576  0.35011564     0.27900
H1306       H  0.77470045  0.89332559  0.32349687     0.27900
H1307       H  0.66859952  0.81478103  0.28948494     0.18500
H1308       H  0.67106433  0.79685375  0.39106003     0.18500
C1309       C  0.79124421  0.00129508  0.49727318    -0.07300
C1310       C  0.80026824  0.04412817  0.49925046    -0.18500
C1311       C  0.81747423  0.06762268  0.52358318     0.09900
C1312       C  0.82959060  0.04893094  0.54539825    -0.07300
C1313       C  0.81410197  0.00430360  0.54479280    -0.18500
C1314       C  0.79420547  0.98019240  0.52123011     0.09900
S1315       S  0.82644190  0.12198288  0.52427237    -0.33500
S1316       S  0.78024843  0.92431187  0.52152967    -0.33500
H1317       H  0.74188687  0.91050080  0.50644758     0.27900
H1318       H  0.81655621  0.12059404  0.55261108     0.27900
H1319       H  0.79667605  0.06016915  0.48116691     0.18500
H1320       H  0.82110441  0.98863936  0.56168330     0.18500
C1321       C  0.51614613  0.01063530  0.48971801    -0.07300
C1322       C  0.52941624  0.99055558  0.50959830    -0.18500
C1323       C  0.49994837  0.95710811  0.52641397     0.09900
C1324       C  0.45542893  0.94341380  0.52436152    -0.07300
C1325       C  0.44188620  0.96335812  0.50442063    -0.18500
C1326       C  0.47158441  0.99674741  0.48716197     0.09900
S1327       S  0.52149296  0.93167901  0.54861739    -0.33500
S1328       S  0.45217581  0.02229002  0.46305152    -0.33500
H1329       H  0.40853713  0.00009771  0.47124097     0.27900
H1330       H  0.48989279  0.88993024  0.54115637     0.27900
H1331       H  0.56338427  0.00040726  0.51180588     0.18500
H1332       H  0.40779006  0.95292682  0.50248654     0.18500
C1333       C  0.80746172  0.33485466  0.48294579    -0.07300
C1334       C  0.77578479  0.31741323  0.50360641    -0.18500
C1335       C  0.74542575  0.27320653  0.50337622     0.09900
C1336       C  0.74609362  0.24715921  0.48142062    -0.07300
C1337       C  0.78363146  0.26297159  0.46527263    -0.18500
C1338       C  0.81598320  0.30598318  0.46770283     0.09900
S1339       S  0.70391019  0.25327960  0.52935437    -0.33500
S1340       S  0.86564941  0.32419742  0.44875224    -0.33500
H1341       H  0.88720577  0.36521923  0.46103885     0.27900
H1342       H  0.70544266  0.21496948  0.53368274     0.27900
H1343       H  0.77143873  0.33850834  0.51777580     0.18500
H1344       H  0.78676026  0.24258953  0.44986047     0.18500
C1345       C  0.68207618  0.05197222  0.44039168    -0.07300
C1346       C  0.72472899  0.07492043  0.43037291    -0.18500
C1347       C  0.74403843  0.05389292  0.41615986     0.09900
C1348       C  0.72038556  0.00873415  0.41174218    -0.07300
C1349       C  0.67805246  0.98622636  0.42248231    -0.18500
C1350       C  0.65942757  0.00683193  0.43713607     0.09900
S1351       S  0.79912599  0.08619023  0.40496276    -0.33500
S1352       S  0.60651555  0.97332431  0.45193620    -0.33500
H1353       H  0.61241725  0.00073847  0.47437126     0.27900
H1354       H  0.78991576  0.07191824  0.37741884     0.27900
H1355       H  0.74244449  0.10962160  0.43249835     0.18500
H1356       H  0.65944886  0.95154429  0.42037834     0.18500
C1357       C  0.48182853  0.15615611  0.34408757    -0.07300
C1358       C  0.51365012  0.19362114  0.35677377    -0.18500
C1359       C  0.53290979  0.19186995  0.38146751     0.09900
C1360       C  0.52177791  0.15124594  0.39318672    -0.07300
C1361       C  0.48574141  0.11438712  0.38252531    -0.18500
C1362       C  0.46485959  0.11667118  0.35838105     0.09900
S1363       S  0.57468112  0.24239873  0.39476882    -0.33500
S1364       S  0.41931796  0.06876637  0.34497832    -0.33500
H1365       H  0.41516339  0.04163690  0.36734363     0.27900
H1366       H  0.55873346  0.23338097  0.42205684     0.27900
H1367       H  0.52501677  0.22453652  0.34665809     0.18500
H1368       H  0.47589691  0.08337110  0.39202728     0.18500
C1369       C  0.35185914  0.77209082  0.03909191    -0.07300
C1370       C  0.33011846  0.73728061  0.02117400    -0.18500
C1371       C  0.28559575  0.70927405  0.02388073     0.09900
C1372       C  0.26229165  0.71530192  0.04566428    -0.07300
C1373       C  0.28306209  0.75314645  0.06130706    -0.18500
C1374       C  0.32713202  0.78227506  0.05743602     0.09900
S1375       S  0.26208832  0.66314111  0.00154451    -0.33500
S1376       S  0.35087311  0.83104332  0.07743808    -0.33500
H1377       H  0.38902895  0.85254667  0.06169471     0.27900
H1378       H  0.22768245  0.66971206  0.99345313     0.27900
H1379       H  0.34831625  0.72971391  0.00650657     0.18500
H1380       H  0.26535248  0.75917619  0.07737381     0.18500
C1381       C  0.41442937  0.60642531  0.03223857    -0.07300
C1382       C  0.40222736  0.63151154  0.01621532    -0.18500
C1383       C  0.42499873  0.67666662  0.01771361     0.09900
C1384       C  0.45762031  0.69729787  0.03793428    -0.07300
C1385       C  0.47314700  0.67262182  0.05139023    -0.18500
C1386       C  0.45291898  0.62762656  0.04773506     0.09900
S1387       S  0.40878755  0.70576792  0.99468435    -0.33500
S1388       S  0.47420646  0.59681617  0.06464310    -0.33500
H1389       H  0.51220379  0.63222973  0.07453194     0.27900
H1390       H  0.45140594  0.73593624  0.98721813     0.27900
H1391       H  0.37374243  0.61602644  0.00343847     0.18500
H1392       H  0.49950669  0.68821923  0.06591897     0.18500
C1393       C  0.53655898  0.82518269  0.15687820    -0.07300
C1394       C  0.51790409  0.83183554  0.18052127    -0.18500
C1395       C  0.52138539  0.81552069  0.20599611     0.09900
C1396       C  0.54725679  0.79570833  0.20815772    -0.07300
C1397       C  0.57089427  0.79460781  0.18517136    -0.18500
C1398       C  0.56423665  0.80751131  0.15911592     0.09900
S1399       S  0.48772273  0.81439644  0.23437722    -0.33500
S1400       S  0.58669654  0.79657803  0.12864997    -0.33500
H1401       H  0.61503892  0.78608649  0.14270087     0.27900
H1402       H  0.46451191  0.83089998  0.21998211     0.27900
H1403       H  0.49601677  0.84469054  0.17833959     0.18500
H1404       H  0.58948765  0.77796457  0.18683084     0.18500
C1405       C  0.34769181  0.83086957  0.19142937    -0.07300
C1406       C  0.38761923  0.86821442  0.18845758    -0.18500
C1407       C  0.41300131  0.87422440  0.16490884     0.09900
C1408       C  0.39793066  0.84170343  0.14434945    -0.07300
C1409       C  0.35609550  0.80675859  0.14639380    -0.18500
C1410       C  0.33054306  0.80169629  0.16932668     0.09900
S1411       S  0.46527116  0.92191851  0.16377788    -0.33500
S1412       S  0.27688130  0.75631690  0.16976441    -0.33500
H1413       H  0.25902596  0.77833643  0.18403470     0.27900
H1414       H  0.48804188  0.90005617  0.15744641     0.27900
H1415       H  0.40041420  0.89101403  0.20535341     0.18500
H1416       H  0.34370678  0.78233008  0.13041790     0.18500
C1417       C  0.96401237  0.08696223  0.15203452    -0.07300
C1418       C  0.98024982  0.06272293  0.16508382    -0.18500
C1419       C  0.02411605  0.07458919  0.16272727     0.09900
C1420       C  0.05216445  0.11129754  0.14686855    -0.07300
C1421       C  0.03727178  0.13905420  0.13778024    -0.18500
C1422       C  0.99370598  0.12791257  0.14114876     0.09900
S1423       S  0.04058125  0.03788410  0.17651824    -0.33500
S1424       S  0.97429081  0.16252992  0.12729705    -0.33500
H1425       H  0.01439744  0.19515151  0.11747806     0.27900
H1426       H  0.07972605  0.07029829  0.18736249     0.27900
H1427       H  0.95800439  0.03158807  0.17382689     0.18500
H1428       H  0.05903604  0.16787964  0.12642098     0.18500
C1429       C  0.86979168  0.91715390  0.12935566    -0.07300
C1430       C  0.89941298  0.92726436  0.15105874    -0.18500
C1431       C  0.91602779  0.89999016  0.15818517     0.09900
C1432       C  0.90389623  0.86206983  0.14296499    -0.07300
C1433       C  0.87086779  0.84986240  0.12314517    -0.18500
C1434       C  0.85341501  0.87672236  0.11635798     0.09900
S1435       S  0.95489422  0.91669070  0.18560975    -0.33500
S1436       S  0.81344364  0.85926996  0.08930928    -0.33500
H1437       H  0.79633875  0.88632031  0.09601665     0.27900
H1438       H  0.94758644  0.87494481  0.19155338     0.27900
H1439       H  0.91116964  0.95762714  0.16175823     0.18500
H1440       H  0.86140016  0.82103582  0.11103751     0.18500
C1441       C  0.61716893  0.88786984  0.07316431    -0.07300
C1442       C  0.62613002  0.89586999  0.10169080    -0.18500
C1443       C  0.66824429  0.91668569  0.11212784     0.09900
C1444       C  0.70318451  0.93241483  0.09358146    -0.07300
C1445       C  0.69440419  0.92073610  0.06534357    -0.18500
C1446       C  0.65198967  0.89836717  0.05504348     0.09900
S1447       S  0.67502541  0.92632058  0.14878136    -0.33500
S1448       S  0.64474812  0.88941444  0.01836083    -0.33500
H1449       H  0.61025148  0.84718807  0.02100935     0.27900
H1450       H  0.70603111  0.91267344  0.15105468     0.27900
H1451       H  0.60014056  0.88786672  0.11610917     0.18500
H1452       H  0.72096111  0.93162758  0.05079306     0.18500
C1453       C  0.92037242  0.14584504  0.04532172    -0.07300
C1454       C  0.96537026  0.16363681  0.04532594    -0.18500
C1455       C  0.98890505  0.17871062  0.02085308     0.09900
C1456       C  0.96668203  0.17490555  0.99593675    -0.07300
C1457       C  0.92302203  0.16359114  0.99671762    -0.18500
C1458       C  0.89985015  0.15029704  0.02149129     0.09900
S1459       S  0.04555826  0.19505391  0.02195343    -0.33500
S1460       S  0.84284009  0.13223630  0.02019507    -0.33500
H1461       H  0.84142700  0.14732668  0.04681673     0.27900
H1462       H  0.05761612  0.22951485  0.00340073     0.27900
H1463       H  0.98142087  0.16062387  0.06358311     0.18500
H1464       H  0.90618902  0.16178147  0.97763755     0.18500
C1465       C  0.83466658  0.98988382  0.01008713    -0.07300
C1466       C  0.79361610  0.96564960  0.99855429    -0.18500
C1467       C  0.78858784  0.94423291  0.97353949     0.09900
C1468       C  0.82521658  0.94585501  0.96067850    -0.07300
C1469       C  0.86657155  0.97637166  0.96974330    -0.18500
C1470       C  0.87162243  0.99857497  0.99446965     0.09900
S1471       S  0.73484968  0.91447046  0.95950429    -0.33500
S1472       S  0.92515300  0.03645181  0.00649977    -0.33500
H1473       H  0.94749400  0.03609564  0.98251143     0.27900
H1474       H  0.74868016  0.91742409  0.93186856     0.27900
H1475       H  0.76536041  0.96177069  0.00962651     0.18500
H1476       H  0.89491642  0.97955861  0.95915607     0.18500
C1477       C  0.38214943  0.58882655  0.30833429    -0.07300
C1478       C  0.36952174  0.54504447  0.31180628    -0.18500
C1479       C  0.32617332  0.51481653  0.31754051     0.09900
C1480       C  0.29535909  0.52873142  0.32107957    -0.07300
C1481       C  0.30964895  0.57274774  0.32250435    -0.18500
C1482       C  0.35170641  0.60275173  0.31451462     0.09900
S1483       S  0.31046989  0.45842462  0.31689049    -0.33500
S1484       S  0.36380252  0.65783333  0.30957687    -0.33500
H1485       H  0.32262350  0.65246623  0.31555998     0.27900
H1486       H  0.26920531  0.44382431  0.32853057     0.27900
H1487       H  0.39240411  0.53385257  0.30762813     0.18500
H1488       H  0.28582948  0.58315898  0.32506558     0.18500
C1489       C  0.22421499  0.67156795  0.31740109    -0.07300
C1490       C  0.19486358  0.65434948  0.29527600    -0.18500
C1491       C  0.17548226  0.61047905  0.28838682     0.09900
C1492       C  0.18537476  0.58305080  0.30402135    -0.07300
C1493       C  0.20920303  0.59881070  0.32850173    -0.18500
C1494       C  0.22797359  0.64252919  0.33555942     0.09900
S1495       S  0.14092318  0.59188803  0.25846509    -0.33500
S1496       S  0.25671795  0.65935882  0.36768375    -0.33500
H1497       H  0.25763574  0.69929614  0.36861764     0.27900
H1498       H  0.11903179  0.54807779  0.26587503     0.27900
H1499       H  0.18997956  0.67584951  0.28176379     0.18500
H1500       H  0.21540940  0.57745748  0.34136731     0.18500
C1501       C  0.25093900  0.42380386  0.21071455    -0.07300
C1502       C  0.22626991  0.40573770  0.18684177    -0.18500
C1503       C  0.24604858  0.41235755  0.16096616     0.09900
C1504       C  0.29140871  0.43614006  0.15922165    -0.07300
C1505       C  0.31621642  0.44963092  0.18345262    -0.18500
C1506       C  0.29625951  0.44456798  0.20925673     0.09900
S1507       S  0.21176435  0.39341166  0.13086480    -0.33500
S1508       S  0.32834518  0.46850919  0.23977815    -0.33500
H1509       H  0.36886145  0.48777714  0.22651096     0.27900
H1510       H  0.24273544  0.39309399  0.11286887     0.27900
H1511       H  0.19133041  0.39059788  0.18793566     0.18500
H1512       H  0.35111163  0.46793479  0.18182942     0.18500
C1513       C  0.14090368  0.46631900  0.18783687    -0.07300
C1514       C  0.17304845  0.47728590  0.16776216    -0.18500
C1515       C  0.16886883  0.49157132  0.14157901     0.09900
C1516       C  0.13131846  0.49458516  0.13563396    -0.07300
C1517       C  0.09648808  0.47665502  0.15450243    -0.18500
C1518       C  0.10138454  0.46368414  0.18080707     0.09900
S1519       S  0.21307041  0.50865356  0.11728309    -0.33500
S1520       S  0.05811975  0.44894592  0.20529468    -0.33500
H1521       H  0.06764086  0.42161587  0.22117706     0.27900
H1522       H  0.24170228  0.50326996  0.13480600     0.27900
H1523       H  0.20263319  0.47729669  0.17332329     0.18500
H1524       H  0.06687412  0.47733477  0.15012963     0.18500
C1525       C  0.68943173  0.24612409  0.21358357    -0.07300
C1526       C  0.66579585  0.20197477  0.22014340    -0.18500
C1527       C  0.62237234  0.18300540  0.22912499     0.09900
C1528       C  0.60186109  0.20850052  0.23109602    -0.07300
C1529       C  0.62493337  0.25175614  0.22267833    -0.18500
C1530       C  0.66781029  0.27046113  0.21398212     0.09900
S1531       S  0.59677190  0.12785331  0.24065338    -0.33500
S1532       S  0.69534072  0.32726846  0.20658812    -0.33500
H1533       H  0.72321890  0.32443613  0.18705450     0.27900
H1534       H  0.57462739  0.13376750  0.26292066     0.27900
H1535       H  0.68245743  0.18334009  0.22120288     0.18500
H1536       H  0.60970111  0.27174310  0.22340663     0.18500
C1537       C  0.80531717  0.17219180  0.18969835    -0.07300
C1538       C  0.82105860  0.18222157  0.16236360    -0.18500
C1539       C  0.81981159  0.15104698  0.14430091     0.09900
C1540       C  0.80352296  0.10821904  0.15352549    -0.07300
C1541       C  0.78660333  0.09754359  0.18051216    -0.18500
C1542       C  0.78610778  0.12854808  0.19832201     0.09900
S1543       S  0.84337314  0.16912026  0.11056764    -0.33500
S1544       S  0.76051265  0.11005341  0.23152655    -0.33500
H1545       H  0.73544468  0.13068770  0.22902954     0.27900
H1546       H  0.80448381  0.14225419  0.09676300     0.27900
H1547       H  0.83540503  0.21507522  0.15487808     0.18500
H1548       H  0.77345010  0.06465451  0.18774534     0.18500
C1549       C  0.82059295  0.41100173  0.20578929    -0.07300
C1550       C  0.79860875  0.40340815  0.18031871    -0.18500
C1551       C  0.77736947  0.42637668  0.17269065     0.09900
C1552       C  0.77872387  0.45836828  0.19035416    -0.07300
C1553       C  0.80848567  0.47216981  0.21231947    -0.18500
C1554       C  0.82897583  0.44860120  0.22044308     0.09900
S1555       S  0.74570114  0.41092734  0.14152367    -0.33500
S1556       S  0.86372153  0.46698078  0.25019965    -0.33500
H1557       H  0.89042754  0.45061636  0.24108962     0.27900
H1558       H  0.73939377  0.44697929  0.14057437     0.27900
H1559       H  0.79396174  0.37651272  0.16754573     0.18500
H1560       H  0.81194318  0.49849313  0.22523145     0.18500
C1561       C  0.02718710  0.37775235  0.27801426    -0.07300
C1562       C  0.00893230  0.40196841  0.26724065    -0.18500
C1563       C  0.97030577  0.38230997  0.25168493     0.09900
C1564       C  0.94939902  0.33739707  0.24641455    -0.07300
C1565       C  0.96732476  0.31352830  0.25842227    -0.18500
C1566       C  0.00462253  0.33276081  0.27453054     0.09900
S1567       S  0.94944359  0.41616120  0.23936006    -0.33500
S1568       S  0.02356744  0.29823909  0.28912438    -0.33500
H1569       H  0.04803661  0.32652503  0.31043400     0.27900
H1570       H  0.94728936  0.40303905  0.21170526     0.27900
H1571       H  0.02639792  0.43670742  0.26921763     0.18500
H1572       H  0.95168306  0.27893971  0.25573248     0.18500
C1573       C  0.71863024  0.20509224  0.31092699    -0.07300
C1574       C  0.72318144  0.17280875  0.32492544    -0.18500
C1575       C  0.69945734  0.15350046  0.34891333     0.09900
C1576       C  0.66982317  0.16595742  0.35875852    -0.07300
C1577       C  0.66214564  0.19485710  0.34323026    -0.18500
C1578       C  0.68569888  0.21412875  0.31932390     0.09900
S1579       S  0.71171591  0.11684797  0.36739748    -0.33500
S1580       S  0.67237300  0.25027574  0.30100082    -0.33500
H1581       H  0.68116121  0.23954884  0.27475084     0.27900
H1582       H  0.71230131  0.13428921  0.39356928     0.27900
H1583       H  0.74791739  0.16508792  0.31858074     0.18500
H1584       H  0.63827761  0.20342577  0.35026349     0.18500
C1585       C  0.88438671  0.33823516  0.32567985    -0.07300
C1586       C  0.91400407  0.38249125  0.32586301    -0.18500
C1587       C  0.92145411  0.40655491  0.35017044     0.09900
C1588       C  0.89777940  0.38579432  0.37420723    -0.07300
C1589       C  0.87328345  0.34078552  0.37473191    -0.18500
C1590       C  0.86725740  0.31664822  0.35091327     0.09900
S1591       S  0.95471287  0.46437661  0.34888736    -0.33500
S1592       S  0.82985396  0.25971489  0.35295046    -0.33500
H1593       H  0.85523177  0.24829866  0.33632673     0.27900
H1594       H  0.97202324  0.46641327  0.32235552     0.27900
H1595       H  0.92726564  0.39884287  0.30640699     0.18500
H1596       H  0.85409006  0.32465794  0.39275332     0.18500
C1597       C  0.70994194  0.41642998  0.46226705    -0.07300
C1598       C  0.69156412  0.44347414  0.45930157    -0.18500
C1599       C  0.64648579  0.42715615  0.46307171     0.09900
C1600       C  0.61980922  0.38364138  0.47093638    -0.07300
C1601       C  0.63896918  0.35815259  0.47599063    -0.18500
C1602       C  0.68292184  0.37369875  0.47151535     0.09900
S1603       S  0.62235994  0.46027064  0.45505644    -0.33500
S1604       S  0.70232040  0.33644938  0.47707570    -0.33500
H1605       H  0.73795391  0.36769140  0.49167759     0.27900
H1606       H  0.66106122  0.49765147  0.44814489     0.27900
H1607       H  0.71178954  0.47619079  0.45215739     0.18500
H1608       H  0.61875095  0.32448627  0.48139269     0.18500
C1609       C  0.55522510  0.18380087  0.49326492    -0.07300
C1610       C  0.51933125  0.16277530  0.47563378    -0.18500
C1611       C  0.49440253  0.18207657  0.46811526     0.09900
C1612       C  0.50469854  0.22267050  0.47911307    -0.07300
C1613       C  0.53622997  0.24008920  0.49999613    -0.18500
C1614       C  0.56198809  0.22155171  0.50673738     0.09900
S1615       S  0.45167529  0.15468511  0.44339325    -0.33500
S1616       S  0.60588694  0.24824312  0.53078859    -0.33500
H1617       H  0.59920438  0.28320068  0.53679848     0.27900
H1618       H  0.42700985  0.17367224  0.45215656     0.27900
H1619       H  0.51354803  0.13343942  0.46531112     0.18500
H1620       H  0.54387468  0.27079886  0.50903259     0.18500
C1621       C  0.57446690  0.40646601  0.36223956    -0.07300
C1622       C  0.59949920  0.45149807  0.36173417    -0.18500
C1623       C  0.62759546  0.47257331  0.33956272     0.09900
C1624       C  0.62962288  0.44799623  0.31718534    -0.07300
C1625       C  0.60309107  0.40315421  0.31752430    -0.18500
C1626       C  0.57564110  0.38231514  0.33945843     0.09900
S1627       S  0.66128290  0.53007286  0.34187370    -0.33500
S1628       S  0.54127419  0.32490503  0.33618416    -0.33500
H1629       H  0.50429018  0.32683091  0.34424020     0.27900
H1630       H  0.69918820  0.52961791  0.33376396     0.27900
H1631       H  0.59838806  0.47011164  0.37912414     0.18500
H1632       H  0.60307550  0.38379762  0.30022404     0.18500
C1633       C  0.41466317  0.26517593  0.36206793    -0.07300
C1634       C  0.41275576  0.28644226  0.33805027    -0.18500
C1635       C  0.40432838  0.26576026  0.31239039     0.09900
C1636       C  0.39727440  0.22335409  0.31095854    -0.07300
C1637       C  0.38962464  0.19969652  0.33549519    -0.18500
C1638       C  0.39890526  0.22025189  0.36109105     0.09900
S1639       S  0.40647229  0.29570357  0.28195400    -0.33500
S1640       S  0.39507025  0.18828604  0.39108321    -0.33500
H1641       H  0.39444861  0.21696041  0.41070825     0.27900
H1642       H  0.38559504  0.25934358  0.26478630     0.27900
H1643       H  0.42293544  0.32051315  0.33866298     0.18500
H1644       H  0.38278248  0.16652483  0.33463124     0.18500
C1645       C  0.92344647  0.07141166  0.37397376    -0.07300
C1646       C  0.94749899  0.11066185  0.38765454    -0.18500
C1647       C  0.99206399  0.13594757  0.38278612     0.09900
C1648       C  0.01357717  0.12024434  0.36552143    -0.07300
C1649       C  0.98877680  0.08504220  0.34860929    -0.18500
C1650       C  0.94390802  0.06081704  0.35224850     0.09900
S1651       S  0.02295036  0.18510206  0.40196086    -0.33500
S1652       S  0.91646307  0.01340356  0.33112041    -0.33500
H1653       H  0.88434003  0.02332144  0.32274912     0.27900
H1654       H  0.98813606  0.18359515  0.41685832     0.27900
H1655       H  0.93201884  0.11997564  0.40345912     0.18500
H1656       H  0.00477163  0.07322189  0.33489507     0.18500
C1657       C  0.16599585  0.28525288  0.36867583    -0.07300
C1658       C  0.18298099  0.29231536  0.34173352    -0.18500
C1659       C  0.18192620  0.32295059  0.32435682     0.09900
C1660       C  0.16261036  0.34714012  0.33366560    -0.07300
C1661       C  0.14793114  0.34212350  0.36124115    -0.18500
C1662       C  0.14904935  0.31116834  0.37878602     0.09900
S1663       S  0.20709479  0.33029856  0.29089248    -0.33500
S1664       S  0.12626951  0.30489435  0.41293683    -0.33500
H1665       H  0.10708106  0.25991626  0.41356957     0.27900
H1666       H  0.22787545  0.37550280  0.29220899     0.27900
H1667       H  0.19685343  0.27317327  0.33393130     0.18500
H1668       H  0.13372981  0.36107367  0.36879249     0.18500
C1669       C  0.10248962  0.94994337  0.36455339    -0.07300
C1670       C  0.07506980  0.96193715  0.35099361    -0.18500
C1671       C  0.08463452  0.00503317  0.35084596     0.09900
C1672       C  0.12239007  0.03628925  0.36415803    -0.07300
C1673       C  0.15384766  0.02550066  0.37209834    -0.18500
C1674       C  0.14447903  0.98246644  0.37185173     0.09900
S1675       S  0.04490888  0.01738038  0.33678166    -0.33500
S1676       S  0.18470087  0.96997569  0.38489304    -0.33500
H1677       H  0.16489983  0.92775740  0.37437666     0.27900
H1678       H  0.07382272  0.06135898  0.33235972     0.27900
H1679       H  0.04326486  0.93743866  0.34441827     0.18500
H1680       H  0.18375730  0.04967214  0.38130339     0.18500
C1681       C  0.35757459  0.27726961  0.43582986    -0.07300
C1682       C  0.33642961  0.23236182  0.43943167    -0.18500
C1683       C  0.29770709  0.20542074  0.42536707     0.09900
C1684       C  0.28040978  0.22306260  0.40613896    -0.07300
C1685       C  0.30319225  0.26716620  0.40093435    -0.18500
C1686       C  0.33929342  0.29450088  0.41660352     0.09900
S1687       S  0.26964398  0.14898636  0.43428984    -0.33500
S1688       S  0.35619804  0.35106981  0.41291077    -0.33500
H1689       H  0.35994081  0.35874600  0.44161165     0.27900
H1690       H  0.24214567  0.13536700  0.41115605     0.27900
H1691       H  0.34965185  0.21814087  0.45355130     0.18500
H1692       H  0.28884661  0.28131620  0.38759626     0.18500
C1693       C  0.15605741  0.10271530  0.48722463    -0.07300
C1694       C  0.18557501  0.12943113  0.50733865    -0.18500
C1695       C  0.18917167  0.11280530  0.53281222     0.09900
C1696       C  0.16288430  0.06845539  0.53811999    -0.07300
C1697       C  0.13352456  0.04204230  0.51804735    -0.18500
C1698       C  0.12956428  0.05824268  0.49283020     0.09900
S1699       S  0.22684078  0.14984545  0.55761333    -0.33500
S1700       S  0.08984031  0.02057250  0.46886949    -0.33500
H1701       H  0.06499676  0.98828147  0.48824881     0.27900
H1702       H  0.20261764  0.12806126  0.58112930     0.27900
H1703       H  0.20552142  0.16360166  0.50336526     0.18500
H1704       H  0.11444934  0.00771614  0.52165253     0.18500
C1705       C  0.05130648  0.17140485  0.47376697    -0.07300
C1706       C  0.00772455  0.13976026  0.47263282    -0.18500
C1707       C  0.97987269  0.13463187  0.49431560     0.09900
C1708       C  0.99626903  0.16103785  0.51780163    -0.07300
C1709       C  0.03852570  0.19549145  0.51774367    -0.18500
C1710       C  0.06633776  0.20115551  0.49578328     0.09900
S1711       S  0.92449826  0.09239312  0.49166665    -0.33500
S1712       S  0.12186732  0.24244196  0.49909430    -0.33500
H1713       H  0.12279645  0.26074357  0.47311793     0.27900
H1714       H  0.90807886  0.11319752  0.50851633     0.27900
H1715       H  0.99590383  0.11747076  0.45541476     0.18500
H1716       H  0.05096652  0.21574167  0.53582699     0.18500
C1717       C  0.61739908  0.17483468  0.99125912    -0.07300
C1718       C  0.64500105  0.16004955  0.98107153    -0.18500
C1719       C  0.68964110  0.18801490  0.97849209     0.09900
C1720       C  0.70674008  0.23145944  0.98606081    -0.07300
C1721       C  0.68049313  0.24404176  0.00061623    -0.18500
C1722       C  0.63609951  0.21579665  0.00371979     0.09900
S1723       S  0.72289098  0.16762674  0.96389580    -0.33500
S1724       S  0.60374144  0.23569947  0.02016984    -0.33500
H1725       H  0.56653207  0.19525104  0.02315956     0.27900
H1726       H  0.76224410  0.19985237  0.97472915     0.27900
H1727       H  0.63116138  0.12829715  0.97193062     0.18500
H1728       H  0.69378698  0.27711588  0.00740190     0.18500
C1729       C  0.48012750  0.00300610  0.98808098    -0.07300
C1730       C  0.51245144  0.99216096  0.98225767    -0.18500
C1731       C  0.51921980  0.96433647  0.99929548     0.09900
C1732       C  0.49208497  0.94522473  0.02245016    -0.07300
C1733       C  0.45982010  0.95611231  0.02847552    -0.18500
C1734       C  0.45350336  0.98477769  0.01160148     0.09900
S1735       S  0.56448529  0.95645518  0.99099691    -0.33500
S1736       S  0.41007071  0.99583127  0.01961455    -0.33500
H1737       H  0.39357001  0.96824199  0.04265156     0.27900
H1738       H  0.57689160  0.95678945  0.01868673     0.27900
H1739       H  0.53378210  0.00665924  0.96467874     0.18500
H1740       H  0.43880613  0.94122592  0.04610026     0.18500
C1741       C  0.58073285  0.34263010  0.97117225    -0.07300
C1742       C  0.53547451  0.32031316  0.96799760    -0.18500
C1743       C  0.51315831  0.27592624  0.96138556     0.09900
C1744       C  0.53691683  0.25398774  0.95710087    -0.07300
C1745       C  0.58140766  0.27583145  0.96185845    -0.18500
C1746       C  0.60300398  0.31887916  0.96958812     0.09900
S1747       S  0.45537670  0.25044663  0.95702535    -0.33500
S1748       S  0.66010973  0.34289046  0.97555557    -0.33500
H1749       H  0.65853832  0.36924773  0.99654701     0.27900
H1750       H  0.44890829  0.21163679  0.94541379     0.27900
H1751       H  0.51791727  0.33809287  0.96848433     0.18500
H1752       H  0.59984916  0.25913195  0.95945374     0.18500
C1753       C  0.59232102  0.08777726  0.87833208    -0.07300
C1754       C  0.57053176  0.05677883  0.85759893    -0.18500
C1755       C  0.58735531  0.06267327  0.83084655     0.09900
C1756       C  0.62886928  0.09735204  0.82574907    -0.07300
C1757       C  0.65415357  0.12241994  0.84783321    -0.18500
C1758       C  0.63627122  0.11821733  0.87410334     0.09900
S1759       S  0.55227786  0.02746424  0.80422999    -0.33500
S1760       S  0.66988018  0.15529417  0.90026246    -0.33500
H1761       H  0.64803657  0.12684932  0.92221018     0.27900
H1762       H  0.57679083  0.04961083  0.78099920     0.27900
H1763       H  0.53740708  0.03174739  0.86077635     0.18500
H1764       H  0.68673222  0.14833940  0.84399686     0.18500
C1765       C  0.47956416  0.13168537  0.84456823    -0.07300
C1766       C  0.43750660  0.12332331  0.83878305    -0.18500
C1767       C  0.42879158  0.13994131  0.81484448     0.09900
C1768       C  0.46330759  0.16597661  0.79677049    -0.07300
C1769       C  0.50360251  0.16829477  0.80058614    -0.18500
C1770       C  0.51210856  0.15158075  0.82425137     0.09900
S1771       S  0.37410410  0.12885669  0.80837311    -0.33500
S1772       S  0.56572272  0.15857219  0.82779650    -0.33500
H1773       H  0.55146946  0.11999484  0.84244880     0.27900
H1774       H  0.35505959  0.10337800  0.83200989     0.27900
H1775       H  0.41224125  0.10650940  0.85393000     0.18500
H1776       H  0.52995527  0.18631344  0.78625634     0.18500
C1777       C  0.92974353  0.82704688  0.86994225    -0.07300
C1778       C  0.95091957  0.80964544  0.88549390    -0.18500
C1779       C  0.99478715  0.82297795  0.88067109     0.09900
C1780       C  0.01889219  0.85766339  0.86255480    -0.07300
C1781       C  0.99631952  0.86898599  0.84367285    -0.18500
C1782       C  0.95169220  0.85304895  0.84668414     0.09900
S1783       S  0.02124602  0.79820765  0.89889186    -0.33500
S1784       S  0.92615596  0.87141197  0.82224114    -0.33500
H1785       H  0.89062829  0.83015612  0.81812097     0.27900
H1786       H  0.98397951  0.76624575  0.91218245     0.27900
H1787       H  0.93384557  0.78748437  0.90223094     0.18500
H1788       H  0.01402073  0.89327701  0.82815341     0.18500
C1789       C  0.10553313  0.03898671  0.88156690    -0.07300
C1790       C  0.12568520  0.07943578  0.89427028    -0.18500
C1791       C  0.11088935  0.10899980  0.88973255     0.09900
C1792       C  0.07314815  0.09692824  0.87394291    -0.07300
C1793       C  0.05507328  0.05791669  0.85958515    -0.18500
C1794       C  0.07163173  0.02941579  0.86261515     0.09900
S1795       S  0.14021655  0.16106065  0.90571602    -0.33500
S1796       S  0.04609420  0.97900233  0.84438358    -0.33500
H1797       H  0.01858549  0.98773557  0.82793604     0.27900
H1798       H  0.12340759  0.18147230  0.88878376     0.27900
H1799       H  0.15263707  0.08778832  0.90810766     0.18500
H1800       H  0.02572867  0.04818192  0.84788564     0.18500
C1801       C  0.36395522  0.06541518  0.92575360    -0.07300
C1802       C  0.35436600  0.04788990  0.89884573    -0.18500
C1803       C  0.31279650  0.03011587  0.88766516     0.09900
C1804       C  0.27901602  0.02872967  0.90364417    -0.07300
C1805       C  0.28912315  0.04990494  0.92941324    -0.18500
C1806       C  0.33113376  0.06823951  0.94060810     0.09900
S1807       S  0.30369111  0.00534204  0.85405519    -0.33500
S1808       S  0.33956320  0.09047015  0.97487557    -0.33500
H1809       H  0.36282356  0.07036201  0.98432444     0.27900
H1810       H  0.26724642  0.00955927  0.84775221     0.27900
H1811       H  0.37904537  0.04591828  0.88676310     0.18500
H1812       H  0.26324147  0.04861288  0.94200168     0.18500
C1813       C  0.16846289  0.98422711  0.99792893    -0.07300
C1814       C  0.20969319  0.01867138  0.00336849    -0.18500
C1815       C  0.21807190  0.04172598  0.02809996     0.09900
C1816       C  0.18400973  0.03087149  0.04726368    -0.07300
C1817       C  0.14503604  0.99248930  0.04347870    -0.18500
C1818       C  0.13697444  0.96918453  0.01913852     0.09900
S1819       S  0.27228055  0.08487241  0.03362133    -0.33500
S1820       S  0.08565792  0.92082605  0.01631745    -0.33500
H1821       H  0.10449487  0.89877998  0.00350880     0.27900
H1822       H  0.27090258  0.07909217  0.06250819     0.27900
H1823       H  0.23492525  0.02876900  0.98791264     0.18500
H1824       H  0.11923059  0.98204392  0.05860624     0.18500
C1825       C  0.05937394  0.82549894  0.97140663    -0.07300
C1826       C  0.01514046  0.81258084  0.97288769    -0.18500
C1827       C  0.99193194  0.79610307  0.99732603     0.09900
C1828       C  0.01348749  0.79347513  0.02109861    -0.07300
C1829       C  0.05582619  0.80076008  0.01871723    -0.18500
C1830       C  0.07836032  0.81449146  0.99359641     0.09900
S1831       S  0.93677946  0.78526945  0.99788097    -0.33500
S1832       S  0.13241813  0.82171215  0.99157075    -0.33500
H1833       H  0.13150851  0.80186884  0.01695467     0.27900
H1834       H  0.92217958  0.75045308  0.01639914     0.27900
H1835       H  0.99936468  0.81911457  0.95583723     0.18500
H1836       H  0.07228457  0.79855457  0.03694204     0.18500
C1837       C  0.29623600  0.71158203  0.81319517    -0.07300
C1838       C  0.31954165  0.75590817  0.80702768    -0.18500
C1839       C  0.36343051  0.77563606  0.79870367     0.09900
C1840       C  0.38356022  0.75005709  0.79552826    -0.07300
C1841       C  0.36099904  0.70681417  0.80381705    -0.18500
C1842       C  0.31874011  0.68808994  0.81356453     0.09900
S1843       S  0.39155414  0.83180387  0.78921486    -0.33500
S1844       S  0.29314180  0.63215075  0.82318192    -0.33500
H1845       H  0.26339877  0.63510361  0.84104817     0.27900
H1846       H  0.35987095  0.84137216  0.79909195     0.27900
H1847       H  0.30231620  0.77396395  0.80596422     0.18500
H1848       H  0.37620333  0.68689128  0.80218973     0.18500
C1849       C  0.17007166  0.77987081  0.82613672    -0.07300
C1850       C  0.17518515  0.77871041  0.85489249    -0.18500
C1851       C  0.17749067  0.81128784  0.87214684     0.09900
C1852       C  0.17322737  0.84563953  0.86066085    -0.07300
C1853       C  0.16839442  0.84684983  0.83182014    -0.18500
C1854       C  0.16675917  0.81454918  0.81447578     0.09900
S1855       S  0.18718832  0.80741613  0.90836706    -0.33500
S1856       S  0.15724750  0.81663316  0.77788842    -0.33500
H1857       H  0.15809765  0.85655097  0.77786407     0.27900
H1858       H  0.21819118  0.85123220  0.91081748     0.27900
H1859       H  0.17823025  0.75247367  0.86401121     0.18500
H1860       H  0.16448734  0.87261462  0.82284789     0.18500
C1861       C  0.20738316  0.49671274  0.82287233    -0.07300
C1862       C  0.17638140  0.48373104  0.80169504    -0.18500
C1863       C  0.15487786  0.50706455  0.79590766     0.09900
C1864       C  0.16463065  0.54398083  0.81168071    -0.07300
C1865       C  0.18774865  0.55033417  0.83652831    -0.18500
C1866       C  0.20960809  0.52728324  0.84207441     0.09900
S1867       S  0.11731283  0.48976605  0.76747780    -0.33500
S1868       S  0.24424025  0.54177982  0.87191811    -0.33500
H1869       H  0.24797730  0.50420949  0.87205867     0.27900
H1870       H  0.09423681  0.51005894  0.77694632     0.27900
H1871       H  0.17245615  0.45838236  0.78767979     0.18500
H1872       H  0.19311232  0.57663974  0.85010257     0.18500
C1873       C  0.27476058  0.75747046  0.71158566    -0.07300
C1874       C  0.26466433  0.78513350  0.69635753    -0.18500
C1875       C  0.28573732  0.80375264  0.67160670     0.09900
C1876       C  0.31713290  0.79408669  0.66145807    -0.07300
C1877       C  0.33067357  0.77041457  0.67805616    -0.18500
C1878       C  0.31029194  0.75257716  0.70334438     0.09900
S1879       S  0.26712163  0.83463041  0.65223545    -0.33500
S1880       S  0.32946704  0.72346318  0.72452650    -0.33500
H1881       H  0.36606009  0.73254693  0.70842288     0.27900
H1882       H  0.30852721  0.87063524  0.64947973     0.27900
H1883       H  0.23791519  0.78986375  0.70258122     0.18500
H1884       H  0.35618958  0.76458484  0.67061565     0.18500
C1885       C  0.12534584  0.58572968  0.63625654    -0.07300
C1886       C  0.09091704  0.56702120  0.65544845    -0.18500
C1887       C  0.09301824  0.58643900  0.68086206     0.09900
C1888       C  0.12895413  0.62652447  0.68673447    -0.07300
C1889       C  0.16023029  0.64809704  0.66632855    -0.18500
C1890       C  0.15929887  0.62813133  0.64134232     0.09900
S1891       S  0.05141408  0.55670162  0.70604444    -0.33500
S1892       S  0.20483030  0.65721562  0.61868165    -0.33500
H1893       H  0.17969183  0.64059214  0.59495821     0.27900
H1894       H  0.05824331  0.59317400  0.72098952     0.27900
H1895       H  0.06408821  0.53498992  0.65205497     0.18500
H1896       H  0.18807495  0.67901559  0.67103330     0.18500
C1897       C  0.59176764  0.38486525  0.70977299    -0.07300
C1898       C  0.61716705  0.37293273  0.69360070    -0.18500
C1899       C  0.66211128  0.39946603  0.69169823     0.09900
C1900       C  0.68200080  0.43901719  0.70599437    -0.07300
C1901       C  0.65538209  0.45343880  0.71846585    -0.18500
C1902       C  0.61079101  0.42638855  0.72120553     0.09900
S1903       S  0.69258625  0.37805632  0.67464942    -0.33500
S1904       S  0.58080940  0.44476634  0.74209044    -0.33500
H1905       H  0.53993199  0.41669244  0.73097941     0.27900
H1906       H  0.72389267  0.41798389  0.66391261     0.27900
H1907       H  0.60257695  0.34094012  0.68471176     0.18500
H1908       H  0.67014542  0.48385110  0.72943200     0.18500
C1909       C  0.79060863  0.37239227  0.72553205    -0.07300
C1910       C  0.77540877  0.35659320  0.69884342    -0.18500
C1911       C  0.75351417  0.31203520  0.69337320     0.09900
C1912       C  0.74674396  0.28282446  0.71517214    -0.07300
C1913       C  0.76758059  0.29963932  0.74053551    -0.18500
C1914       C  0.78912697  0.34371507  0.74598818     0.09900
S1915       S  0.73243173  0.29523833  0.65910377    -0.33500
S1916       S  0.81133006  0.36149881  0.78007612    -0.33500
H1917       H  0.84161026  0.40381632  0.77231505     0.27900
H1918       H  0.73022669  0.25489206  0.66032775     0.27900
H1919       H  0.77741185  0.37879562  0.68277892     0.18500
H1920       H  0.76446077  0.27795591  0.75713427     0.18500
C1921       C  0.95404150  0.56733393  0.74413177    -0.07300
C1922       C  0.96936657  0.54636862  0.76187423    -0.18500
C1923       C  0.00977866  0.56884197  0.77514503     0.09900
C1924       C  0.03583907  0.61382993  0.77098417    -0.07300
C1925       C  0.02026326  0.63413825  0.75264256    -0.18500
C1926       C  0.98067338  0.61157442  0.73906245     0.09900
S1927       S  0.02549102  0.53826741  0.79732073    -0.33500
S1928       S  0.96380876  0.64207802  0.71744923    -0.33500
H1929       H  0.93640012  0.60744132  0.70045149     0.27900
H1930       H  0.03314603  0.56553182  0.82014432     0.27900
H1931       H  0.94831675  0.51276326  0.76697778     0.18500
H1932       H  0.03914833  0.66833827  0.74848485     0.18500
C1933       C  0.83200101  0.48670911  0.84033581    -0.07300
C1934       C  0.79450123  0.46489753  0.85634064    -0.18500
C1935       C  0.79455514  0.44482215  0.88125222     0.09900
C1936       C  0.83350543  0.44645494  0.89019206    -0.07300
C1937       C  0.87205059  0.47322230  0.87568633    -0.18500
C1938       C  0.87165378  0.49336618  0.85088885     0.09900
S1939       S  0.74365959  0.41436406  0.89943122    -0.33500
S1940       S  0.92174705  0.52294785  0.83220972    -0.33500
H1941       H  0.91143671  0.55264099  0.82006441     0.27900
H1942       H  0.71713858  0.41984380  0.88009850     0.27900
H1943       H  0.76444243  0.46127469  0.84823840     0.18500
H1944       H  0.90234481  0.47587304  0.88249665     0.18500
C1945       C  0.73639559  0.54933940  0.80724363    -0.07300
C1946       C  0.69129700  0.52694138  0.80576021    -0.18500
C1947       C  0.66648374  0.51981980  0.82955523     0.09900
C1948       C  0.68760946  0.53441340  0.85518747    -0.07300
C1949       C  0.73222344  0.56217094  0.85588882    -0.18500
C1950       C  0.75696216  0.57052283  0.83186295     0.09900
S1951       S  0.60901145  0.48502168  0.82671003    -0.33500
S1952       S  0.81513584  0.60203501  0.83386203    -0.33500
H1953       H  0.81768267  0.61080818  0.86235958     0.27900
H1954       H  0.59851094  0.51001896  0.84425651     0.27900
H1955       H  0.67562649  0.51065498  0.78677020     0.18500
H1956       H  0.74801385  0.57354408  0.87563947     0.18500
C1957       C  0.96034268  0.83397966  0.65965367    -0.07300
C1958       C  0.97621025  0.81723133  0.63920028    -0.18500
C1959       C  0.02052828  0.83708859  0.63292905     0.09900
C1960       C  0.04964000  0.87417125  0.64771322    -0.07300
C1961       C  0.03433219  0.88497097  0.67171463    -0.18500
C1962       C  0.98998614  0.86499508  0.67782072     0.09900
S1963       S  0.03760277  0.81507549  0.60518270    -0.33500
S1964       S  0.97117051  0.88003793  0.70819938    -0.33500
H1965       H  0.01215433  0.90775700  0.71932682     0.27900
H1966       H  0.07960217  0.83000123  0.61545654     0.27900
H1967       H  0.95362844  0.79119051  0.62624083     0.18500
H1968       H  0.05648930  0.91180823  0.68431592     0.18500
C1969       C  0.82837964  0.67744006  0.65599672    -0.07300
C1970       C  0.82937287  0.68305312  0.68484071    -0.18500
C1971       C  0.83115027  0.65355755  0.70312107     0.09900
C1972       C  0.83347403  0.61773155  0.69265365    -0.07300
C1973       C  0.83303980  0.61234347  0.66373236    -0.18500
C1974       C  0.82990690  0.64129169  0.64540123     0.09900
S1975       S  0.82691534  0.66193561  0.73943322    -0.33500
S1976       S  0.82564867  0.62895308  0.60902362    -0.33500
H1977       H  0.79353775  0.64044310  0.60393307     0.27900
H1978       H  0.79039722  0.62108760  0.74274975     0.27900
H1979       H  0.82803081  0.71050067  0.69340003     0.18500
H1980       H  0.83416824  0.58474232  0.65526835     0.18500
C1981       C  0.85137892  0.91965190  0.64835350    -0.07300
C1982       C  0.82834517  0.93723607  0.63522330    -0.18500
C1983       C  0.83975562  0.98046390  0.63934679     0.09900
C1984       C  0.87739667  0.00754105  0.65445803    -0.07300
C1985       C  0.89586594  0.98857583  0.67096967    -0.18500
C1986       C  0.88261448  0.94454690  0.66841373     0.09900
S1987       S  0.80913771  0.00139545  0.62180400    -0.33500
S1988       S  0.90970733  0.92203347  0.68818613    -0.33500
H1989       H  0.93865638  0.95992286  0.70210171     0.27900
H1990       H  0.82806029  0.04109662  0.63577490     0.27900
H1991       H  0.80300022  0.91799049  0.62067213     0.18500
H1992       H  0.92437805  0.00918830  0.68291503     0.18500
C1993       C  0.95860271  0.80397878  0.55770826    -0.07300
C1994       C  0.99207054  0.84547807  0.55111849    -0.18500
C1995       C  0.01600520  0.85299208  0.52689224     0.09900
C1996       C  0.00636129  0.81847920  0.50882132    -0.07300
C1997       C  0.97779969  0.77634202  0.51736927    -0.18500
C1998       C  0.95423666  0.76863745  0.54192276     0.09900
S1999       S  0.05714531  0.90743683  0.51955128    -0.33500
S2000       S  0.91816114  0.71338610  0.55136551    -0.33500
H2001       H  0.92043235  0.72137934  0.58000239     0.27900
H2002       H  0.08601048  0.89526737  0.50818465     0.27900
H2003       H  0.99734159  0.87290338  0.56356878     0.18500
H2004       H  0.97217030  0.74952329  0.50421580     0.18500
C2005       C  0.83479175  0.83281464  0.52370142    -0.07300
C2006       C  0.79220535  0.81672386  0.51467343    -0.18500
C2007       C  0.78302957  0.83382344  0.49118396     0.09900
C2008       C  0.81746813  0.86839895  0.47687667    -0.07300
C2009       C  0.86017881  0.88050461  0.48411142    -0.18500
C2010       C  0.86915398  0.86259976  0.50702230     0.09900
S2011       S  0.72708053  0.81342697  0.48195711    -0.33500
S2012       S  0.92499913  0.87892473  0.51379752    -0.33500
H2013       H  0.91593783  0.83789461  0.52303709     0.27900
H2014       H  0.71207675  0.77287172  0.49447265     0.27900
H2015       H  0.76590541  0.79277148  0.52702519     0.18500
H2016       H  0.88692428  0.90519280  0.47237461     0.18500
C2017       C  0.27126426  0.50566281  0.55154367    -0.07300
C2018       C  0.29005426  0.52943790  0.52718283    -0.18500
C2019       C  0.33516020  0.55173433  0.52324426     0.09900
C2020       C  0.36212248  0.54937773  0.54374539    -0.07300
C2021       C  0.34287991  0.52093502  0.56615126    -0.18500
C2022       C  0.29799304  0.49902343  0.57018658     0.09900
S2023       S  0.35651407  0.58633779  0.49342745    -0.33500
S2024       S  0.27681788  0.46443081  0.60005583    -0.33500
H2025       H  0.23568806  0.43765076  0.58877299     0.27900
H2026       H  0.39578386  0.58572261  0.49241327     0.27900
H2027       H  0.26979571  0.53360081  0.51219233     0.18500
H2028       H  0.36325105  0.51824128  0.58181503     0.18500
C2029       C  0.47076597  0.72779853  0.53665553    -0.07300
C2030       C  0.44001007  0.71296159  0.51521681    -0.18500
C2031       C  0.41689830  0.73434934  0.50844576     0.09900
C2032       C  0.42496752  0.77185358  0.52293765    -0.07300
C2033       C  0.46024356  0.79007429  0.54120083    -0.18500
C2034       C  0.48286474  0.76834278  0.54842690     0.09900
S2035       S  0.37409145  0.70972675  0.48342719    -0.33500
S2036       S  0.52469558  0.79255179  0.57409371    -0.33500
H2037       H  0.54842578  0.77283506  0.56481336     0.27900
H2038       H  0.36883480  0.74605868  0.47943808     0.27900
H2039       H  0.43085535  0.68231157  0.50546653     0.18500
H2040       H  0.46670368  0.81865572  0.55267339     0.18500
C2041       C  0.62410204  0.68601774  0.58013887    -0.07300
C2042       C  0.63480737  0.67290200  0.60524001    -0.18500
C2043       C  0.67524589  0.69615896  0.61765927     0.09900
C2044       C  0.70729161  0.73366570  0.60487983    -0.07300
C2045       C  0.69671635  0.74840922  0.58053804    -0.18500
C2046       C  0.65518772  0.72570701  0.56854014     0.09900
S2047       S  0.68524592  0.67411170  0.64867041    -0.33500
S2048       S  0.64464977  0.74754382  0.53786943    -0.33500
H2049       H  0.60794536  0.74717844  0.54927761     0.27900
H2050       H  0.71574453  0.71385271  0.65987946     0.27900
H2051       H  0.61168601  0.64342503  0.61540460     0.18500
H2052       H  0.72142851  0.77697911  0.57029319     0.18500
C2053       C  0.49916240  0.51214727  0.52443649    -0.07300
C2054       C  0.49750154  0.51654994  0.49551528    -0.18500
C2055       C  0.49510458  0.48495470  0.47721457     0.09900
C2056       C  0.49530384  0.44807177  0.48777796    -0.07300
C2057       C  0.49759318  0.44403979  0.51668231    -0.18500
C2058       C  0.49985901  0.47549920  0.53496079     0.09900
S2059       S  0.48926398  0.49256482  0.44094839    -0.33500
S2060       S  0.50539743  0.46757513  0.57124934    -0.33500
H2061       H  0.53815769  0.51024915  0.57565296     0.27900
H2062       H  0.45492585  0.45049086  0.43709359     0.27900
H2063       H  0.49671450  0.54435618  0.48701529     0.18500
H2064       H  0.49816120  0.41615694  0.52524953     0.18500
C2065       C  0.34506419  0.49233951  0.69195827    -0.07300
C2066       C  0.38287769  0.48971689  0.68864994    -0.18500
C2067       C  0.40956955  0.50796667  0.66558534     0.09900
C2068       C  0.39810993  0.52934257  0.64527184    -0.07300
C2069       C  0.35861232  0.52921735  0.64783502    -0.18500
C2070       C  0.33192107  0.51083525  0.67088221     0.09900
S2071       S  0.46003144  0.50737891  0.66518339    -0.33500
S2072       S  0.28141919  0.51158135  0.67338859    -0.33500
H2073       H  0.28379868  0.53090425  0.64755194     0.27900
H2074       H  0.45144798  0.48607385  0.63956561     0.27900
H2075       H  0.39291966  0.47550804  0.70483945     0.18500
H2076       H  0.34950159  0.54514761  0.63223117     0.18500
C2077       C  0.55333941  0.68164622  0.65580415    -0.07300
C2078       C  0.54894083  0.65942908  0.68065533    -0.18500
C2079       C  0.55890591  0.68125071  0.70589402     0.09900
C2080       C  0.57433859  0.72595195  0.70610440    -0.07300
C2081       C  0.58598045  0.74882595  0.68106002    -0.18500
C2082       C  0.57473312  0.72706805  0.65583381     0.09900
S2083       S  0.54531986  0.65002068  0.73732927    -0.33500
S2084       S  0.58426280  0.75880847  0.62482035    -0.33500
H2085       H  0.58288319  0.72780045  0.60633379     0.27900
H2086       H  0.56942303  0.68514909  0.75493727     0.27900
H2087       H  0.53322434  0.62455871  0.68071550     0.18500
H2088       H  0.59779395  0.78326355  0.68111094     0.18500
loop_ 
_geom_bond_atom_site_label_1 
_geom_bond_atom_site_label_2 
_geom_bond_distance 
_geom_bond_site_symmetry_2 
_ccdc_geom_bond_type 
O1           C16   1.289       .  A
O1           Al9   1.947       .  S
C2           O12   1.263       .  A
C2            O3   1.264       .  A
C2         C2077   1.467       .  S
O3           Al5   1.888       .  S
O4            C6   1.250       .  A
O4           Al5   1.918       .  S
Al5          O13   1.883       .  S
Al5          O15   1.923       .  S
Al5          O14   1.763       .  S
C6           O19   1.243       .  A
C6         C2029   1.488       .  S
O7           C17   1.291       .  A
O7           Al9   1.970       .  S
O8           C21   1.258       .  A
O8          Al18   1.928       .  S
Al9          O22   1.900       .  S
Al9          O19   1.893       .  S
Al9          O14   1.766       .  S
O10          C17   1.274       .  A
O10         Al18   1.913       .  S
O11          C20   1.252       .  A
O11         Al18   1.882       .  S
O12         Al18   1.904       .  S
O13          C20   1.255       .  A
O14         Al18   1.773       .  S
O15          C16   1.281       .  A
C16        C2020   1.481       .  S
C17        C2041   1.506       .  S
C20        C2068   1.477       .  S
C21          O22   1.251       .  A
C21        C2053   1.486       .  S
O23          C38   1.272       .  A
O23         Al31   1.941       .  S
C24          O34   1.260       .  A
C24          O25   1.261       .  A
C24        C2005   1.466       .  S
O25         Al27   1.893       .  S
O26          C28   1.259       .  A
O26         Al27   1.912       .  S
Al27         O35   1.881       .  S
Al27         O37   1.923       .  S
Al27         O36   1.770       .  S
C28          O41   1.259       .  A
C28        C1981   1.482       .  S
O29          C39   1.279       .  A
O29         Al31   1.938       .  S
O30          C43   1.260       .  A
O30         Al40   1.922       .  S
Al31         O44   1.900       .  S
Al31         O41   1.932       .  S
Al31         O36   1.780       .  S
O32          C39   1.272       .  A
O32         Al40   1.921       .  S
O33          C42   1.258       .  A
O33         Al40   1.893       .  S
O34         Al40   1.886       .  S
O35          C42   1.258       .  A
O36         Al40   1.772       .  S
O37          C38   1.269       .  A
C38        C1957   1.481       .  S
C39        C2044   1.480       .  S
C42        C1993   1.476       .  S
C43          O44   1.255       .  A
C43        C1969   1.482       .  S
O45          C60   1.251       .  A
O45         Al53   1.872       .  S
C46          O56   1.262       .  A
C46          O47   1.266       .  A
C46        C1933   1.465       .  S
O47         Al49   1.940       .  S
O48          C50   1.250       .  A
O48         Al49   1.835       .  S
Al49         O57   1.885       .  S
Al49         O59   1.925       .  S
Al49         O58   1.788       .  S
C50          O63   1.278       .  A
C50        C1921   1.473       .  S
O51          C61   1.254       .  A
O51         Al53   1.896       .  S
O52          C65   1.256       .  A
O52         Al62   1.840       .  S
Al53         O66   1.978       .  S
Al53         O63   1.979       .  S
Al53         O58   1.787       .  S
O54          C61   1.258       .  A
O54         Al62   1.906       .  S
O55          C64   1.262       .  A
O55         Al62   1.907       .  S
O56         Al62   1.883       .  S
O57          C64   1.254       .  A
O58         Al62   1.771       .  S
O59          C60   1.261       .  A
C60        C1972   1.486       .  S
C61        C1909   1.474       .  S
C64        C1945   1.453       .  S
C65          O66   1.277       .  A
C65        C1900   1.481       .  S
O67          C82   1.247       .  A
O67         Al75   1.899       .  S
C68          O78   1.256       .  A
C68          O69   1.259       .  A
C68        C1888   1.457       .  S
O69         Al71   1.903       .  S
O70          C72   1.276       .  A
O70         Al71   1.908       .  S
Al71         O79   1.866       .  S
Al71         O81   1.902       .  S
Al71         O80   1.771       .  S
C72          O85   1.287       .  A
C72        C1924   1.504       .  S
O73          C83   1.245       .  A
O73         Al75   1.894       .  S
O74          C87   1.275       .  A
O74         Al84   1.897       .  S
Al75         O88   1.954       .  S
Al75         O85   1.950       .  S
Al75         O80   1.770       .  S
O76          C83   1.252       .  A
O76         Al84   1.920       .  S
O77          C86   1.261       .  A
O77         Al84   1.907       .  S
O78         Al84   1.872       .  S
O79          C86   1.254       .  A
O80         Al84   1.766       .  S
O81          C82   1.248       .  A
C82        C1849   1.482       .  S
C83        C1864   1.490       .  S
C86        C1873   1.476       .  S
C87          O88   1.288       .  A
C87        C1837   1.479       .  S
O89         C104   1.272       .  A
O89         Al97   1.942       .  S
C90         O100   1.260       .  A
C90          O91   1.262       .  A
C90        C1813   1.470       .  S
O91         Al93   1.900       .  S
O92          C94   1.261   1_565  A
O92         Al93   1.917       .  S
Al93        O101   1.889       .  S
Al93        O103   1.904       .  S
Al93        O102   1.770       .  S
C94         O107   1.259   1_545  A
C94        C1789   1.486       .  S
O95         C105   1.274       .  A
O95         Al97   1.944       .  S
O96         C109   1.258       .  A
O96        Al106   1.900       .  S
Al97        O110   1.919       .  S
Al97        O107   1.926       .  S
Al97        O102   1.783       .  S
O98         C105   1.266       .  A
O98        Al106   1.908       .  S
O99         C108   1.255       .  A
O99        Al106   1.893       .  S
O100       Al106   1.894       .  S
O101        C108   1.259       .  A
O102       Al106   1.779       .  S
O103        C104   1.266       .  A
C104       C1780   1.478       .  S
C105       C1804   1.481   1_565  S
C108       C1825   1.485       .  S
C109        O110   1.261       .  A
C109       C1852   1.487       .  S
O111        C126   1.273       .  A
O111       Al119   1.942       .  S
C112        O122   1.262       .  A
C112        O113   1.263       .  A
C112       C1765   1.466       .  S
O113       Al115   1.896       .  S
O114        C116   1.259       .  A
O114       Al115   1.908       .  S
Al115       O123   1.901       .  S
Al115       O125   1.884       .  S
Al115       O124   1.773       .  S
C116        O129   1.257       .  A
C116       C1744   1.479       .  S
O117        C127   1.274       .  A
O117       Al119   1.959       .  S
O118        C131   1.258       .  A
O118       Al128   1.881       .  S
Al119       O132   1.936       .  S
Al119       O129   1.917       .  S
Al119       O124   1.787       .  S
O120        C127   1.262       .  A
O120       Al128   1.899       .  S
O121        C130   1.253       .  A
O121       Al128   1.871       .  S
O122       Al128   1.891       .  S
O123        C130   1.257       .  A
O124       Al128   1.782       .  S
O125        C126   1.262       .  A
C126       C1717   1.471       .  S
C127       C1801   1.496       .  S
C130       C1753   1.481       .  S
C131        O132   1.265       .  A
C131       C1729   1.483       .  S
O133        C148   1.248       .  A
O133       Al141   1.840       .  S
C134        O144   1.261       .  A
C134        O135   1.274       .  A
C134       C1693   1.468       .  S
O135       Al137   1.944       .  S
O136        C138   1.249       .  A
O136       Al137   1.829       .  S
Al137       O145   1.880       .  S
Al137       O147   1.935       .  S
Al137       O146   1.779       .  S
C138        O151   1.277       .  A
C138       C1684   1.470       .  S
O139        C149   1.250       .  A
O139       Al141   1.904       .  S
O140        C153   1.255       .  A
O140       Al150   1.817       .  S
Al141       O154   1.999       .  S
Al141       O151   1.973       .  S
Al141       O146   1.769       .  S
O142        C149   1.254       .  A
O142       Al150   1.909       .  S
O143        C152   1.261       .  A
O143       Al150   1.911       .  S
O144       Al150   1.866       .  S
O145        C152   1.253       .  A
O146       Al150   1.767       .  S
O147        C148   1.262       .  A
C148       C1657   1.474       .  S
C149       C1672   1.472       .  S
C152       C1705   1.457       .  S
C153        O154   1.285       .  A
C153       C1648   1.474       .  S
O155        C170   1.252       .  A
O155       Al163   1.893       .  S
C156        O166   1.263       .  A
C156        O157   1.267       .  A
C156       C1633   1.473       .  S
O157       Al159   1.919       .  S
O158        C160   1.265       .  A
O158       Al159   1.896       .  S
Al159       O167   1.887       .  S
Al159       O169   1.937       .  S
Al159       O168   1.780       .  S
C160        O173   1.290       .  A
C160       C1681   1.502       .  S
O161        C171   1.242       .  A
O161       Al163   1.881       .  S
O162        C175   1.280       .  A
O162       Al172   1.909       .  S
Al163       O176   1.956       .  S
Al163       O173   1.974       .  S
Al163       O168   1.763       .  S
O164        C171   1.248       .  A
O164       Al172   1.916       .  S
O165        C174   1.251       .  A
O165       Al172   1.865       .  S
O166       Al172   1.877       .  S
O167        C174   1.252       .  A
O168       Al172   1.761       .  S
O169        C170   1.262       .  A
C170       C2056   1.487       .  S
C171       C1612   1.489       .  S
C174       C1621   1.464       .  S
C175        O176   1.291       .  A
C175       C1600   1.480       .  S
O177        C192   1.291       .  A
O177       Al185   1.954       .  S
C178        O188   1.262       .  A
C178        O179   1.262       .  A
C178       C1585   1.465       .  S
O179       Al181   1.881       .  S
O180        C182   1.253       .  A
O180       Al181   1.933       .  S
Al181       O189   1.894       .  S
Al181       O191   1.900       .  S
Al181       O190   1.762       .  S
C182        O195   1.244       .  A
C182       C1549   1.502       .  S
O183        C193   1.290       .  A
O183       Al185   1.961       .  S
O184        C197   1.253       .  A
O184       Al194   1.925       .  S
Al185       O198   1.902       .  S
Al185       O195   1.890       .  S
Al185       O190   1.756       .  S
O186        C193   1.275       .  A
O186       Al194   1.907       .  S
O187        C196   1.254       .  A
O187       Al194   1.876       .  S
O188       Al194   1.907       .  S
O189        C196   1.257       .  A
O190       Al194   1.774       .  S
O191        C192   1.279       .  A
C192       C1525   1.479       .  S
C193       C1564   1.502       .  S
C196       C1573   1.476       .  S
C197        O198   1.251       .  A
C197       C1537   1.499       .  S
O199        C214   1.282       .  A
O199       Al207   1.976       .  S
C200        O210   1.269       .  A
C200        O201   1.271       .  A
C200       C1513   1.452       .  S
O201       Al203   1.890       .  S
O202        C204   1.254       .  A
O202       Al203   1.915       .  S
Al203       O211   1.893       .  S
Al203       O213   1.854       .  S
Al203       O212   1.776       .  S
C204        O217   1.251       .  A
C204       C1492   1.480       .  S
O205        C215   1.272       .  A
O205       Al207   1.963       .  S
O206        C219   1.257       .  A
O206       Al216   1.895       .  S
Al207       O220   1.880       .  S
Al207       O217   1.904       .  S
Al207       O212   1.791       .  S
O208        C215   1.251       .  A
O208       Al216   1.838       .  S
O209        C218   1.252       .  A
O209       Al216   1.898       .  S
O210       Al216   1.922       .  S
O211        C218   1.252       .  A
O212       Al216   1.785       .  S
O213        C214   1.261       .  A
C214       C1480   1.466       .  S
C215       C1561   1.479       .  S
C218       C1501   1.458       .  S
C219        O220   1.252       .  A
C219       C1660   1.478       .  S
O221        C236   1.253       .  A
O221       Al229   1.893       .  S
C222        O232   1.264   1_545  A
C222        O223   1.265       .  A
C222       C1465   1.459   1_545  S
O223       Al225   1.926       .  S
O224        C226   1.253       .  A
O224       Al225   1.841   1_565  S
Al225       O233   1.893       .  S
Al225       O235   1.912       .  S
Al225       O234   1.791       .  S
C226        O239   1.277       .  A
C226       C1444   1.491       .  S
O227        C237   1.253       .  A
O227       Al229   1.902   1_565  S
O228        C241   1.254       .  A
O228       Al238   1.830       .  S
Al229       O242   1.985       .  S
Al229       O239   1.972   1_545  S
Al229       O234   1.789       .  S
O230        C237   1.257       .  A
O230       Al238   1.922   1_565  S
O231        C240   1.261       .  A
O231       Al238   1.904       .  S
O232       Al238   1.881   1_565  S
O233        C240   1.255       .  A
O234       Al238   1.776       .  S
O235        C236   1.257       .  A
C236       C1540   1.487       .  S
C237       C1429   1.483       .  S
C240       C1453   1.463       .  S
C241        O242   1.280       .  A
C241       C1417   1.476       .  S
O243        C258   1.251       .  A
O243       Al251   1.905       .  S
C244        O254   1.261       .  A
C244        O245   1.261       .  A
C244       C1393   1.454       .  S
O245       Al247   1.894       .  S
O246        C248   1.271       .  A
O246       Al247   1.905       .  S
Al247       O255   1.870       .  S
Al247       O257   1.896       .  S
Al247       O256   1.785       .  S
C248        O261   1.285       .  A
C248       C1441   1.492       .  S
O249        C259   1.244       .  A
O249       Al251   1.902       .  S
O250        C263   1.278       .  A
O250       Al260   1.910       .  S
Al251       O264   1.948       .  S
Al251       O261   1.957       .  S
Al251       O256   1.776       .  S
O252        C259   1.249       .  A
O252       Al260   1.914       .  S
O253        C262   1.256       .  A
O253       Al260   1.886       .  S
O254       Al260   1.881       .  S
O255        C262   1.248       .  A
O256       Al260   1.767       .  S
O257        C258   1.249       .  A
C258       C1732   1.480       .  S
C259       C1384   1.496       .  S
C262       C1408   1.466       .  S
C263        O264   1.286       .  A
C263       C1369   1.478       .  S
O265        C280   1.254       .  A
O265       Al273   1.891       .  S
C266        O276   1.257       .  A
C266        O267   1.261       .  A
C266       C1576   1.466       .  S
O267       Al269   1.905       .  S
O268        C270   1.271       .  A
O268       Al269   1.911       .  S
Al269       O277   1.901       .  S
Al269       O279   1.933       .  S
Al269       O278   1.775       .  S
C270        O283   1.281       .  A
C270       C1345   1.488       .  S
O271        C281   1.258       .  A
O271       Al273   1.932       .  S
O272        C285   1.264       .  A
O272       Al282   1.914       .  S
Al273       O286   1.945       .  S
Al273       O283   1.951       .  S
Al273       O278   1.778       .  S
O274        C281   1.260       .  A
O274       Al282   1.913       .  S
O275        C284   1.258       .  A
O275       Al282   1.892       .  S
O276       Al282   1.873       .  S
O277        C284   1.261       .  A
O278       Al282   1.775       .  S
O279        C280   1.262       .  A
C280       C1321   1.491       .  S
C281       C1336   1.486       .  S
C284       C1360   1.483       .  S
C285        O286   1.273       .  A
C285       C1609   1.479       .  S
O287        C302   1.245       .  A
O287       Al295   1.898       .  S
C288        O298   1.261   1_565  A
C288        O289   1.264       .  A
C288       C1309   1.469   1_565  S
O289       Al291   1.920       .  S
O290        C292   1.278       .  A
O290       Al291   1.913       .  S
Al291       O299   1.873       .  S
Al291       O301   1.929       .  S
Al291       O300   1.768       .  S
C292        O305   1.290       .  A
C292       C1348   1.502   1_565  S
O293        C303   1.238       .  A
O293       Al295   1.870   1_545  S
O294        C307   1.277       .  A
O294       Al304   1.891       .  S
Al295       O308   1.969       .  S
Al295       O305   1.955       .  S
Al295       O300   1.758       .  S
O296        C303   1.254       .  A
O296       Al304   1.928   1_545  S
O297        C306   1.259       .  A
O297       Al304   1.890       .  S
O298       Al304   1.883   1_545  S
O299        C306   1.252       .  A
O300       Al304   1.763       .  S
O301        C302   1.253       .  A
C302       C1300   1.496       .  S
C303       C1645   1.491       .  S
C306       C2008   1.474       .  S
C307        O308   1.294       .  A
C307       C1285   1.489       .  S
O309        C324   1.252       .  A
O309       Al317   1.905       .  S
C310        O320   1.260       .  A
C310        O311   1.265       .  A
C310       C1273   1.478       .  S
O311       Al313   1.922       .  S
O312        C314   1.268       .  A
O312       Al313   1.902       .  S
Al313       O321   1.870       .  S
Al313       O323   1.932       .  S
Al313       O322   1.774       .  S
C314        O327   1.280       .  A
C314       C1252   1.483       .  S
O315        C325   1.255       .  A
O315       Al317   1.922       .  S
O316        C329   1.269       .  A
O316       Al326   1.910       .  S
Al317       O330   1.936       .  S
Al317       O327   1.941       .  S
Al317       O322   1.784       .  S
O318        C325   1.256       .  A
O318       Al326   1.909       .  S
O319        C328   1.255       .  A
O319       Al326   1.885       .  S
O320       Al326   1.885       .  S
O321        C328   1.255       .  A
O322       Al326   1.772       .  S
O323        C324   1.264       .  A
C324       C1261   1.500       .  S
C325       C1372   1.485       .  S
C328       C1516   1.480       .  S
C329        O330   1.274       .  A
C329       C1237   1.473       .  S
O331        C346   1.246       .  A
O331       Al339   1.893       .  S
C332        O342   1.259   1_655  A
C332        O333   1.258       .  A
C332       C1828   1.465   1_655  S
O333       Al335   1.899       .  S
O334        C336   1.275   1_655  A
O334       Al335   1.917       .  S
Al335       O343   1.884       .  S
Al335       O345   1.918       .  S
Al335       O344   1.780       .  S
C336        O349   1.285       .  A
C336       C1249   1.482       .  S
O337        C347   1.245       .  A
O337       Al339   1.892   1_455  S
O338        C351   1.274       .  A
O338       Al348   1.916       .  S
Al339       O352   1.954       .  S
Al339       O349   1.942   1_655  S
Al339       O344   1.772       .  S
O340        C347   1.258       .  A
O340       Al348   1.940   1_455  S
O341        C350   1.261       .  A
O341       Al348   1.886       .  S
O342       Al348   1.887   1_455  S
O343        C350   1.254       .  A
O344       Al348   1.771       .  S
O345        C346   1.253       .  A
C346       C1201   1.480       .  S
C347       C1213   1.499       .  S
C350       C1228   1.484       .  S
C351        O352   1.286       .  A
C351       C1432   1.482       .  S
O353        C368   1.275       .  A
O353       Al361   1.959       .  S
C354        O364   1.260       .  A
C354        O355   1.260       .  A
C354       C1624   1.473       .  S
O355       Al357   1.876       .  S
O356        C358   1.258       .  A
O356       Al357   1.897       .  S
Al357       O365   1.887       .  S
Al357       O367   1.907       .  S
Al357       O366   1.772       .  S
C358        O371   1.260       .  A
C358       C1168   1.476       .  S
O359        C369   1.281       .  A
O359       Al361   1.956       .  S
O360        C373   1.264       .  A
O360       Al370   1.925       .  S
Al361       O374   1.896       .  S
Al361       O371   1.936       .  S
Al361       O366   1.774       .  S
O362        C369   1.266       .  A
O362       Al370   1.905       .  S
O363        C372   1.258       .  A
O363       Al370   1.890       .  S
O364       Al370   1.898       .  S
O365        C372   1.259       .  A
O366       Al370   1.775       .  S
O367        C368   1.263       .  A
C368       C1552   1.483       .  S
C369       C1177   1.492       .  S
C372       C1189   1.475       .  S
C373        O374   1.256       .  A
C373       C1204   1.479       .  S
O375        C390   1.291       .  A
O375       Al383   2.008       .  S
C376        O386   1.278       .  A
C376        O377   1.269       .  A
C376       C1153   1.459       .  S
O377       Al379   1.875       .  S
O378        C380   1.246       .  A
O378       Al379   1.881       .  S
Al379       O387   1.883       .  S
Al379       O389   1.841       .  S
Al379       O388   1.774       .  S
C380        O393   1.254       .  A
C380       C1477   1.490       .  S
O381        C391   1.279       .  A
O381       Al383   1.992       .  S
O382        C395   1.261       .  A
O382       Al392   1.915       .  S
Al383       O396   1.880       .  S
Al383       O393   1.925       .  S
Al383       O388   1.782       .  S
O384        C391   1.251       .  A
O384       Al392   1.837       .  S
O385        C394   1.250       .  A
O385       Al392   1.897       .  S
O386       Al392   1.955       .  S
O387        C394   1.249       .  A
O388       Al392   1.783       .  S
O389        C390   1.265       .  A
C390       C1141   1.484       .  S
C391       C1180   1.508       .  S
C394       C1396   1.456       .  S
C395        O396   1.252       .  A
C395       C1297   1.496       .  S
O397        C412   1.290       .  A
O397       Al405   1.947       .  S
C398        O408   1.259   1_655  A
C398        O399   1.265       .  A
C398       C1456   1.460       .  S
O399       Al401   1.894       .  S
O400        C402   1.254       .  A
O400       Al401   1.932       .  S
Al401       O409   1.881   1_655  S
Al401       O411   1.915   1_655  S
Al401       O410   1.763   1_655  S
C402        O415   1.242       .  A
C402       C1105   1.491       .  S
O403        C413   1.287       .  A
O403       Al405   1.954   1_655  S
O404        C417   1.255       .  A
O404       Al414   1.912       .  S
Al405       O418   1.913       .  S
Al405       O415   1.876   1_455  S
Al405       O410   1.769       .  S
O406        C413   1.278   1_455  A
O406       Al414   1.925       .  S
O407        C416   1.253       .  A
O407       Al414   1.885       .  S
O408       Al414   1.890       .  S
O409        C416   1.256       .  A
O410       Al414   1.774       .  S
O411        C412   1.280       .  A
C412       C1792   1.476       .  S
C413       C1117   1.504       .  S
C416       C1129   1.479       .  S
C417        O418   1.249       .  A
C417       C1096   1.496       .  S
O419        C434   1.277       .  A
O419       Al427   1.950       .  S
C420        O430   1.262       .  A
C420        O421   1.257       .  A
C420       C1081   1.470       .  S
O421       Al423   1.871       .  S
O422        C424   1.257       .  A
O422       Al423   1.913       .  S
Al423       O431   1.887       .  S
Al423       O433   1.911       .  S
Al423       O432   1.769       .  S
C424        O437   1.255       .  A
C424       C1720   1.475       .  S
O425        C435   1.283       .  A
O425       Al427   1.946       .  S
O426        C439   1.263       .  A
O426       Al436   1.942       .  S
Al427       O440   1.892       .  S
Al427       O437   1.925       .  S
Al427       O432   1.778       .  S
O428        C435   1.272       .  A
O428       Al436   1.917       .  S
O429        C438   1.260       .  A
O429       Al436   1.895       .  S
O430       Al436   1.908       .  S
O431        C438   1.257       .  A
O432       Al436   1.773       .  S
O433        C434   1.267       .  A
C434       C1069   1.478       .  S
C435       C1120   1.481       .  S
C438       C1936   1.488       .  S
C439        O440   1.248       .  A
C439       C1264   1.500       .  S
O441        C456   1.255       .  A
O441       Al449   1.901       .  S
C442        O452   1.260       .  A
C442        O443   1.261       .  A
C442       C2065   1.467       .  S
O443       Al445   1.902       .  S
O444        C446   1.269       .  A
O444       Al445   1.911       .  S
Al445       O453   1.902       .  S
Al445       O455   1.932       .  S
Al445       O454   1.773       .  S
C446        O459   1.277       .  A
C446       C1045   1.477       .  S
O447        C457   1.259       .  A
O447       Al449   1.936       .  S
O448        C461   1.266       .  A
O448       Al458   1.914       .  S
Al449       O462   1.935       .  S
Al449       O459   1.941       .  S
Al449       O454   1.778       .  S
O450        C457   1.258       .  A
O450       Al458   1.901       .  S
O451        C460   1.255       .  A
O451       Al458   1.878       .  S
O452       Al458   1.894       .  S
O453        C460   1.262       .  A
O454       Al458   1.769       .  S
O455        C456   1.264       .  A
C456       C1093   1.497       .  S
C457       C1036   1.475       .  S
C460       C1057   1.483       .  S
C461        O462   1.271       .  A
C461       C1861   1.474       .  S
O463        C478   1.261       .  A
O463       Al471   1.919       .  S
C464        O474   1.260       .  A
C464        O465   1.267       .  A
C464       C1021   1.474       .  S
O465       Al467   1.925       .  S
O466        C468   1.265       .  A
O466       Al467   1.899       .  S
Al467       O475   1.893       .  S
Al467       O477   1.930       .  S
Al467       O476   1.772       .  S
C468        O481   1.280       .  A
C468       C1048   1.501       .  S
O469        C479   1.258       .  A
O469       Al471   1.928       .  S
O470        C483   1.265       .  A
O470       Al480   1.903       .  S
Al471       O484   1.946       .  S
Al471       O481   1.966       .  S
Al471       O476   1.774       .  S
O472        C479   1.257       .  A
O472       Al480   1.900       .  S
O473        C482   1.257       .  A
O473       Al480   1.878       .  S
O474       Al480   1.891       .  S
O475        C482   1.257       .  A
O476       Al480   1.765       .  S
O477        C478   1.268       .  A
C478       C1012   1.494       .  S
C479       C1897   1.472       .  S
C482       C1768   1.475       .  S
C483        O484   1.274       .  A
C483       C1000   1.476       .  S
O485        C500   1.289       .  A
O485       Al493   1.951   1_545  S
C486        O496   1.263       .  A
C486        O487   1.265       .  A
C486        C985   1.471       .  S
O487       Al489   1.894       .  S
O488        C490   1.252       .  A
O488       Al489   1.919       .  S
Al489       O497   1.855   1_565  S
Al489       O499   1.922       .  S
Al489       O498   1.762       .  S
C490        O503   1.245       .  A
C490       C1960   1.493       .  S
O491        C501   1.290       .  A
O491       Al493   1.974       .  S
O492        C505   1.259       .  A
O492       Al502   1.926       .  S
Al493       O506   1.913   1_565  S
Al493       O503   1.888       .  S
Al493       O498   1.763       .  S
O494        C501   1.272   1_545  A
O494       Al502   1.904       .  S
O495        C504   1.252       .  A
O495       Al502   1.877       .  S
O496       Al502   1.906   1_565  S
O497        C504   1.253       .  A
O498       Al502   1.778   1_565  S
O499        C500   1.278   1_565  A
C500        C964   1.482       .  S
C501        C976   1.509       .  S
C504       C1696   1.462       .  S
C505        O506   1.253       .  A
C505       C1009   1.490       .  S
O507        C522   1.277       .  A
O507       Al515   1.950       .  S
C508        O518   1.260       .  A
C508        O509   1.259       .  A
C508       C1876   1.468       .  S
O509       Al511   1.885       .  S
O510        C512   1.261       .  A
O510       Al511   1.923       .  S
Al511       O519   1.895       .  S
Al511       O521   1.908       .  S
Al511       O520   1.778       .  S
C512        O525   1.255       .  A
C512        C937   1.477       .  S
O513        C523   1.281       .  A
O513       Al515   1.956       .  S
O514        C527   1.262       .  A
O514       Al524   1.928       .  S
Al515       O528   1.903       .  S
Al515       O525   1.913       .  S
Al515       O520   1.780       .  S
O516        C523   1.270       .  A
O516       Al524   1.901       .  S
O517        C526   1.257       .  A
O517       Al524   1.885       .  S
O518       Al524   1.897       .  S
O519        C526   1.261       .  A
O520       Al524   1.772       .  S
O521        C522   1.264       .  A
C522       C2032   1.476       .  S
C523        C973   1.486       .  S
C526        C949   1.481       .  S
C527        O528   1.254       .  A
C527       C1324   1.492       .  S
O529        C544   1.255       .  A
O529       Al537   1.878       .  S
C530        O540   1.268       .  A
C530        O531   1.270       .  A
C530        C952   1.462       .  S
O531       Al533   1.932       .  S
O532        C534   1.250       .  A
O532       Al533   1.846       .  S
Al533       O541   1.902       .  S
Al533       O543   1.928       .  S
Al533       O542   1.785       .  S
C534        O547   1.275       .  A
C534        C925   1.486       .  S
O535        C545   1.257       .  A
O535       Al537   1.916       .  S
O536        C549   1.259       .  A
O536       Al546   1.850       .  S
Al537       O550   1.994       .  S
Al537       O547   1.972       .  S
Al537       O542   1.789       .  S
O538        C545   1.259       .  A
O538       Al546   1.910       .  S
O539        C548   1.254       .  A
O539       Al546   1.886       .  S
O540       Al546   1.883       .  S
O541        C548   1.255       .  A
O542       Al546   1.772       .  S
O543        C544   1.264       .  A
C544        C913   1.493       .  S
C545       C1840   1.487       .  S
C548       C2080   1.459       .  S
C549        O550   1.281       .  A
C549       C1033   1.490       .  S
O551        C566   1.247       .  A
O551       Al559   1.896       .  S
C552        O562   1.265       .  A
C552        O553   1.260       .  A
C552       C1756   1.454       .  S
O553       Al555   1.888       .  S
O554        C556   1.278       .  A
O554       Al555   1.919       .  S
Al555       O563   1.877       .  S
Al555       O565   1.907       .  S
Al555       O564   1.770       .  S
C556        O569   1.292       .  A
C556        C928   1.503       .  S
O557        C567   1.241       .  A
O557       Al559   1.886       .  S
O558        C571   1.283       .  A
O558       Al568   1.929       .  S
Al559       O572   1.952       .  S
Al559       O569   1.962       .  S
Al559       O564   1.760       .  S
O560        C567   1.252       .  A
O560       Al568   1.930       .  S
O561        C570   1.258       .  A
O561       Al568   1.885       .  S
O562       Al568   1.893       .  S
O563        C570   1.252       .  A
O564       Al568   1.759       .  S
O565        C566   1.251       .  A
C566        C901   1.474       .  S
C567        C997   1.495       .  S
C570       C1084   1.478       .  S
C571        O572   1.289       .  A
C571       C1912   1.490       .  S
O573        C588   1.274       .  A
O573       Al581   1.938       .  S
C574        O584   1.265       .  A
C574        O575   1.262       .  A
C574       C1060   1.468       .  S
O575       Al577   1.883       .  S
O576        C578   1.258       .  A
O576       Al577   1.909       .  S
Al577       O585   1.894       .  S
Al577       O587   1.900       .  S
Al577       O586   1.768       .  S
C578        O591   1.258       .  A
C578       C2017   1.491       .  S
O579        C589   1.281       .  A
O579       Al581   1.973       .  S
O580        C593   1.264       .  A
O580       Al590   1.912       .  S
Al581       O594   1.924       .  S
Al581       O591   1.927       .  S
Al581       O586   1.779       .  S
O582        C589   1.265       .  A
O582       Al590   1.904       .  S
O583        C592   1.255       .  A
O583       Al590   1.881       .  S
O584       Al590   1.912       .  S
O585        C592   1.257       .  A
O586       Al590   1.777       .  S
O587        C588   1.266       .  A
C588        C940   1.472       .  S
C589        C892   1.506       .  S
C592       C1885   1.487       .  S
C593        O594   1.262       .  A
C593        C877   1.496       .  S
O595        C610   1.271       .  A
O595       Al603   1.935       .  S
C596        O606   1.259       .  A
C596        O597   1.263       .  A
C596       C1708   1.453       .  S
O597       Al599   1.895       .  S
O598        C600   1.262       .  A
O598       Al599   1.919   1_455  S
Al599       O607   1.897       .  S
Al599       O609   1.883       .  S
Al599       O608   1.769       .  S
C600        O613   1.257       .  A
C600        C961   1.489       .  S
O601        C611   1.273       .  A
O601       Al603   1.951   1_455  S
O602        C615   1.262       .  A
O602       Al612   1.891       .  S
Al603       O616   1.917       .  S
Al603       O613   1.910   1_655  S
Al603       O608   1.781       .  S
O604        C611   1.263   1_655  A
O604       Al612   1.900       .  S
O605        C614   1.255       .  A
O605       Al612   1.901       .  S
O606       Al612   1.881       .  S
O607        C614   1.258       .  A
O608       Al612   1.782       .  S
O609        C610   1.262       .  A
C610       C1984   1.468       .  S
C611        C889   1.480       .  S
C614       C1312   1.489       .  S
C615        O616   1.261       .  A
C615        C904   1.479       .  S
O617        C632   1.290       .  A
O617       Al625   1.964       .  S
C618        O628   1.255       .  A
C618        O619   1.260       .  A
C618       C1948   1.457       .  S
O619       Al621   1.881       .  S
O620        C622   1.257       .  A
O620       Al621   1.944       .  S
Al621       O629   1.906       .  S
Al621       O631   1.897       .  S
Al621       O630   1.769       .  S
C622        O635   1.243       .  A
C622       C1072   1.499       .  S
O623        C633   1.286       .  A
O623       Al625   1.954       .  S
O624        C637   1.250       .  A
O624       Al634   1.907       .  S
Al625       O638   1.890       .  S
Al625       O635   1.882       .  S
Al625       O630   1.766       .  S
O626        C633   1.276       .  A
O626       Al634   1.920       .  S
O627        C636   1.257       .  A
O627       Al634   1.888       .  S
O628       Al634   1.883       .  S
O629        C636   1.261       .  A
O630       Al634   1.782       .  S
O631        C632   1.274       .  A
C632       C1741   1.485       .  S
C633        C853   1.489       .  S
C636       C1024   1.482       .  S
C637        O638   1.247       .  A
C637        C868   1.492       .  S
O639        C654   1.276       .  A
O639       Al647   1.952       .  S
C640        O650   1.262       .  A
C640        O641   1.263       .  A
C640       C1225   1.468       .  S
O641       Al643   1.891       .  S
O642        C644   1.260       .  A
O642       Al643   1.918       .  S
Al643       O651   1.891       .  S
Al643       O653   1.919       .  S
Al643       O652   1.774       .  S
C644        O657   1.257       .  A
C644       C1777   1.490       .  S
O645        C655   1.286       .  A
O645       Al647   1.972       .  S
O646        C659   1.261       .  A
O646       Al656   1.929       .  S
Al647       O660   1.904       .  S
Al647       O657   1.926       .  S
Al647       O652   1.776       .  S
O648        C655   1.270       .  A
O648       Al656   1.908       .  S
O649        C658   1.255       .  A
O649       Al656   1.876       .  S
O650       Al656   1.903       .  S
O651        C658   1.258       .  A
O652       Al656   1.771       .  S
O653        C654   1.268       .  A
C654       C1108   1.485       .  S
C655        C856   1.516       .  S
C658       C1468   1.473       .  S
C659        O660   1.257       .  A
C659        C916   1.487       .  S
O661        C676   1.255       .  A
O661       Al669   1.911       .  S
C662        O672   1.264       .  A
C662        O663   1.260       .  A
C662       C1504   1.459       .  S
O663       Al665   1.889       .  S
O664        C666   1.271       .  A
O664       Al665   1.913       .  S
Al665       O673   1.876       .  S
Al665       O675   1.914       .  S
Al665       O674   1.777       .  S
C666        O679   1.287       .  A
C666        C844   1.509       .  S
O667        C677   1.244       .  A
O667       Al669   1.894       .  S
O668        C681   1.278       .  A
O668       Al678   1.929       .  S
Al669       O682   1.948       .  S
Al669       O679   1.972       .  S
Al669       O674   1.776       .  S
O670        C677   1.251       .  A
O670       Al678   1.919       .  S
O671        C680   1.254       .  A
O671       Al678   1.889       .  S
O672       Al678   1.893       .  S
O673        C680   1.254       .  A
O674       Al678   1.768       .  S
O675        C676   1.257       .  A
C676        C865   1.494       .  S
C677       C1240   1.488       .  S
C680       C1156   1.475       .  S
C681        O682   1.285       .  A
C681       C1381   1.485       .  S
O683        C698   1.257       .  A
O683       Al691   1.906       .  S
C684        O694   1.261       .  A
C684        O685   1.262       .  A
C684       C1132   1.470       .  S
O685       Al687   1.902       .  S
O686        C688   1.268       .  A
O686       Al687   1.912       .  S
Al687       O695   1.893       .  S
Al687       O697   1.924       .  S
Al687       O696   1.782       .  S
C688        O701   1.277       .  A
C688        C841   1.483       .  S
O689        C699   1.257       .  A
O689       Al691   1.923       .  S
O690        C703   1.266       .  A
O690       Al700   1.909       .  S
Al691       O704   1.943       .  S
Al691       O701   1.947       .  S
Al691       O696   1.779       .  S
O692        C699   1.260       .  A
O692       Al700   1.910       .  S
O693        C702   1.258       .  A
O693       Al700   1.877       .  S
O694       Al700   1.893       .  S
O695        C702   1.256       .  A
O696       Al700   1.768       .  S
O697        C698   1.261       .  A
C698        C832   1.478       .  S
C699       C1420   1.480       .  S
C702       C1816   1.478       .  S
C703        O704   1.272       .  A
C703       C1216   1.477       .  S
O705        C720   1.252       .  A
O705       Al713   1.882       .  S
C706        O716   1.269       .  A
C706        O707   1.267       .  A
C706       C1192   1.461       .  S
O707       Al709   1.921       .  S
O708        C710   1.255       .  A
O708       Al709   1.858       .  S
Al709       O717   1.905       .  S
Al709       O719   1.897       .  S
Al709       O718   1.797       .  S
C710        O723   1.274       .  A
C710        C817   1.496       .  S
O711        C721   1.256       .  A
O711       Al713   1.934       .  S
O712        C725   1.260       .  A
O712       Al722   1.848       .  S
Al713       O726   1.984       .  S
Al713       O723   1.965       .  S
Al713       O718   1.798       .  S
O714        C721   1.254       .  A
O714       Al722   1.906       .  S
O715        C724   1.252       .  A
O715       Al722   1.884       .  S
O716       Al722   1.889       .  S
O717        C724   1.253       .  A
O718       Al722   1.781       .  S
O719        C720   1.256       .  A
C720        C880   1.478       .  S
C721       C1597   1.499       .  S
C724       C1588   1.466       .  S
C725        O726   1.281       .  A
C725       C1333   1.488       .  S
O727        C742   1.257       .  A
O727       Al735   1.891       .  S
C728        O738   1.270       .  A
C728        O729   1.270       .  A
C728       C1996   1.464       .  S
O729       Al731   1.927       .  S
O730        C732   1.252   1_455  A
O730       Al731   1.858       .  S
Al731       O739   1.906       .  S
Al731       O741   1.907       .  S
Al731       O740   1.791       .  S
C732        O745   1.269       .  A
C732        C820   1.499       .  S
O733        C743   1.260       .  A
O733       Al735   1.933   1_655  S
O734        C747   1.264       .  A
O734       Al744   1.869       .  S
Al735       O748   1.961       .  S
Al735       O745   1.955   1_455  S
Al735       O740   1.800       .  S
O736        C743   1.254   1_455  A
O736       Al744   1.903       .  S
O737        C746   1.250       .  A
O737       Al744   1.883       .  S
O738       Al744   1.885       .  S
O739        C746   1.251       .  A
O740       Al744   1.777       .  S
O741        C742   1.261       .  A
C742        C808   1.494       .  S
C743       C1288   1.504       .  S
C746        C988   1.472       .  S
C747        O748   1.277       .  A
C747       C1669   1.476       .  S
O749        C764   1.278       .  A
O749       Al757   1.955       .  S
C750        O760   1.257       .  A
C750        O751   1.261       .  A
C750       C1405   1.457       .  S
O751       Al753   1.889       .  S
O752        C754   1.262       .  A
O752       Al753   1.934       .  S
Al753       O761   1.894       .  S
Al753       O763   1.919       .  S
Al753       O762   1.775       .  S
C754        O767   1.256       .  A
C754       C1144   1.497       .  S
O755        C765   1.284       .  A
O755       Al757   1.965       .  S
O756        C769   1.258       .  A
O756       Al766   1.914       .  S
Al757       O770   1.908       .  S
Al757       O767   1.924       .  S
Al757       O762   1.778       .  S
O758        C765   1.271       .  A
O758       Al766   1.915       .  S
O759        C768   1.256       .  A
O759       Al766   1.893       .  S
O760       Al766   1.890       .  S
O761        C768   1.261       .  A
O762       Al766   1.783       .  S
O763        C764   1.269       .  A
C764       C1489   1.487       .  S
C765        C793   1.507       .  S
C768       C1276   1.490       .  S
C769        O770   1.256       .  A
C769        C805   1.476       .  S
O771        C786   1.281       .  A
O771       Al779   1.986       .  S
C772        O782   1.275       .  A
C772        O773   1.268       .  A
C772       C1357   1.475       .  S
O773       Al775   1.873       .  S
O774        C776   1.260       .  A
O774       Al775   1.917       .  S
Al775       O783   1.903       .  S
Al775       O785   1.859       .  S
Al775       O784   1.774       .  S
C776        O789   1.258       .  A
C776       C1528   1.490       .  S
O777        C787   1.273       .  A
O777       Al779   1.970       .  S
O778        C791   1.267       .  A
O778       Al788   1.931       .  S
Al779       O792   1.872       .  S
Al779       O789   1.916       .  S
Al779       O784   1.791       .  S
O780        C787   1.251       .  A
O780       Al788   1.862       .  S
O781        C790   1.252       .  A
O781       Al788   1.904       .  S
O782       Al788   1.955       .  S
O783        C790   1.255       .  A
O784       Al788   1.785       .  S
O785        C786   1.262       .  A
C786       C1165   1.483       .  S
C787        C796   1.495       .  S
C790       C1636   1.467       .  S
C791        O792   1.254       .  A
C791        C829   1.494       .  S
C793        C794   1.415       .  A
C793        C798   1.411       .  A
C794        C795   1.405       .  A
C794        H803   1.083       .  S
C795        C796   1.408   1_565  A
C795        S799   1.801       .  S
C796        C797   1.413       .  A
C797        C798   1.416   1_545  A
C797        H804   1.082       .  S
C798        S800   1.804       .  S
S799        H802   1.406   1_565  S
S800        H801   1.407       .  S
C805        C806   1.403       .  A
C805        C810   1.409       .  A
C806        C807   1.401       .  A
C806        H815   1.084       .  S
C807        C808   1.417       .  A
C807        S811   1.802       .  S
C808        C809   1.412       .  A
C809        C810   1.403       .  A
C809        H816   1.084       .  S
C810        S812   1.804       .  S
S811        H814   1.408       .  S
S812        H813   1.406       .  S
C817        C818   1.414       .  A
C817        C822   1.409       .  A
C818        C819   1.406       .  A
C818        H827   1.083       .  S
C819        C820   1.411       .  A
C819        S823   1.799       .  S
C820        C821   1.415       .  A
C821        C822   1.406       .  A
C821        H828   1.083       .  S
C822        S824   1.799       .  S
S823        H826   1.407       .  S
S824        H825   1.406       .  S
C829        C830   1.415       .  A
C829        C834   1.413       .  A
C830        C831   1.404       .  A
C830        H839   1.084       .  S
C831        C832   1.408       .  A
C831        S835   1.804       .  S
C832        C833   1.405       .  A
C833        C834   1.400       .  A
C833        H840   1.083       .  S
C834        S836   1.801       .  S
S835        H838   1.406       .  S
S836        H837   1.408       .  S
C841        C842   1.412       .  A
C841        C846   1.402       .  A
C842        C843   1.416       .  A
C842        H851   1.083       .  S
C843        C844   1.416       .  A
C843        S847   1.797       .  S
C844        C845   1.417       .  A
C845        C846   1.398       .  A
C845        H852   1.082       .  S
C846        S848   1.803       .  S
S847        H850   1.406       .  S
S848        H849   1.406       .  S
C853        C854   1.411       .  A
C853        C858   1.406       .  A
C854        C855   1.418       .  A
C854        H863   1.083       .  S
C855        C856   1.420       .  A
C855        S859   1.798       .  S
C856        C857   1.417       .  A
C857        C858   1.400       .  A
C857        H864   1.083       .  S
C858        S860   1.805       .  S
S859        H862   1.408       .  S
S860        H861   1.407       .  S
C865        C866   1.411   1_554  A
C865        C870   1.416       .  A
C866        C867   1.400       .  A
C866        H875   1.083       .  S
C867        C868   1.414       .  A
C867        S871   1.803       .  S
C868        C869   1.409   1_556  A
C869        C870   1.404       .  A
C869        H876   1.082       .  S
C870        S872   1.810       .  S
S871        H874   1.408       .  S
S872        H873   1.406       .  S
C877        C878   1.409       .  A
C877        C882   1.424       .  A
C878        C879   1.401   1_455  A
C878        H887   1.083       .  S
C879        C880   1.410       .  A
C879        S883   1.803       .  S
C880        C881   1.401       .  A
C881        C882   1.404   1_655  A
C881        H888   1.083       .  S
C882        S884   1.811       .  S
S883        H886   1.407       .  S
S884        H885   1.407       .  S
C889        C890   1.410       .  A
C889        C894   1.404       .  A
C890        C891   1.417       .  A
C890        H899   1.082       .  S
C891        C892   1.417       .  A
C891        S895   1.798       .  S
C892        C893   1.414       .  A
C893        C894   1.394       .  A
C893        H900   1.083       .  S
C894        S896   1.806   1_455  S
S895        H898   1.407       .  S
S896        H897   1.407       .  S
C901        C902   1.400       .  A
C901        C906   1.413       .  A
C902        C903   1.401       .  A
C902        H911   1.083       .  S
C903        C904   1.420       .  A
C903        S907   1.810       .  S
C904        C905   1.402       .  A
C905        C906   1.392       .  A
C905        H912   1.084       .  S
C906        S908   1.800       .  S
S907        H910   1.407       .  S
S908        H909   1.403       .  S
C913        C914   1.413       .  A
C913        C918   1.414       .  A
C914        C915   1.409       .  A
C914        H923   1.082       .  S
C915        C916   1.410       .  A
C915        S919   1.807       .  S
C916        C917   1.406       .  A
C917        C918   1.397       .  A
C917        H924   1.084       .  S
C918        S920   1.799       .  S
S919        H922   1.406       .  S
S920        H921   1.406       .  S
C925        C926   1.414       .  A
C925        C930   1.404       .  A
C926        C927   1.411       .  A
C926        H935   1.084       .  S
C927        C928   1.412   1_565  A
C927        S931   1.799       .  S
C928        C929   1.416       .  A
C929        C930   1.400   1_545  A
C929        H936   1.082       .  S
C930        S932   1.801       .  S
S931        H934   1.407   1_565  S
S932        H933   1.406       .  S
C937        C938   1.402       .  A
C937        C942   1.407       .  A
C938        C939   1.396       .  A
C938        H947   1.082       .  S
C939        C940   1.406       .  A
C939        S943   1.798       .  S
C940        C941   1.409       .  A
C941        C942   1.409       .  A
C941        H948   1.084       .  S
C942        S944   1.804       .  S
S943        H946   1.407       .  S
S944        H945   1.406       .  S
C949        C950   1.406       .  A
C949        C954   1.418       .  A
C950        C951   1.398       .  A
C950        H959   1.083       .  S
C951        C952   1.408       .  A
C951        S955   1.808       .  S
C952        C953   1.397       .  A
C953        C954   1.396       .  A
C953        H960   1.084       .  S
C954        S956   1.800       .  S
S955        H958   1.407       .  S
S956        H957   1.403       .  S
C961        C962   1.412       .  A
C961        C966   1.410       .  A
C962        C963   1.407       .  A
C962        H971   1.084       .  S
C963        C964   1.409       .  A
C963        S967   1.802       .  S
C964        C965   1.409       .  A
C965        C966   1.403       .  A
C965        H972   1.081       .  S
C966        S968   1.804       .  S
S967        H970   1.405       .  S
S968        H969   1.407       .  S
C973        C974   1.409       .  A
C973        C978   1.408       .  A
C974        C975   1.419       .  A
C974        H983   1.083       .  S
C975        C976   1.420       .  A
C975        S979   1.797       .  S
C976        C977   1.413       .  A
C977        C978   1.392       .  A
C977        H984   1.083       .  S
C978        S980   1.807       .  S
S979        H982   1.407       .  S
S980        H981   1.407       .  S
C985        C986   1.399       .  A
C985        C990   1.413       .  A
C986        C987   1.398       .  A
C986        H995   1.084       .  S
C987        C988   1.415       .  A
C987        S991   1.800       .  S
C988        C989   1.402       .  A
C989        C990   1.402       .  A
C989        H996   1.083       .  S
C990        S992   1.808   1_565  S
S991        H994   1.406       .  S
S992        H993   1.407       .  S
C997        C998   1.403       .  A
C997       C1002   1.423       .  A
C998        C999   1.405       .  A
C998       H1007   1.083       .  S
C999       C1000   1.413       .  A
C999       S1003   1.800       .  S
C1000      C1001   1.398       .  A
C1001      C1002   1.406       .  A
C1001      H1008   1.083       .  S
C1002      S1004   1.804       .  S
S1003      H1006   1.406       .  S
S1004      H1005   1.407       .  S
C1009      C1010   1.401       .  A
C1009      C1014   1.419       .  A
C1010      C1011   1.406       .  A
C1010      H1019   1.082       .  S
C1011      C1012   1.423       .  A
C1011      S1015   1.810       .  S
C1012      C1013   1.403       .  A
C1013      C1014   1.402       .  A
C1013      H1020   1.084       .  S
C1014      S1016   1.802       .  S
S1015      H1018   1.406       .  S
S1016      H1017   1.406       .  S
C1021      C1022   1.405       .  A
C1021      C1026   1.410       .  A
C1022      C1023   1.402       .  A
C1022      H1031   1.083       .  S
C1023      C1024   1.412       .  A
C1023      S1027   1.808       .  S
C1024      C1025   1.406       .  A
C1025      C1026   1.399       .  A
C1025      H1032   1.084       .  S
C1026      S1028   1.799       .  S
S1027      H1030   1.407       .  S
S1028      H1029   1.406       .  S
C1033      C1034   1.411       .  A
C1033      C1038   1.412       .  A
C1034      C1035   1.398       .  A
C1034      H1043   1.083       .  S
C1035      C1036   1.406       .  A
C1035      S1039   1.805       .  S
C1036      C1037   1.407       .  A
C1037      C1038   1.407       .  A
C1037      H1044   1.084       .  S
C1038      S1040   1.799       .  S
S1039      H1042   1.406       .  S
S1040      H1041   1.407       .  S
C1045      C1046   1.409       .  A
C1045      C1050   1.402       .  A
C1046      C1047   1.413       .  A
C1046      H1055   1.082       .  S
C1047      C1048   1.415       .  A
C1047      S1051   1.798       .  S
C1048      C1049   1.415       .  A
C1049      C1050   1.394       .  A
C1049      H1056   1.083       .  S
C1050      S1052   1.800       .  S
S1051      H1054   1.407       .  S
S1052      H1053   1.406       .  S
C1057      C1058   1.409       .  A
C1057      C1062   1.421       .  A
C1058      C1059   1.400       .  A
C1058      H1067   1.083       .  S
C1059      C1060   1.403       .  A
C1059      S1063   1.799       .  S
C1060      C1061   1.400       .  A
C1061      C1062   1.396       .  A
C1061      H1068   1.084       .  S
C1062      S1064   1.812       .  S
S1063      H1066   1.407       .  S
S1064      H1065   1.407       .  S
C1069      C1070   1.410       .  A
C1069      C1074   1.405   1_556  A
C1070      C1071   1.412       .  A
C1070      H1079   1.082       .  S
C1071      C1072   1.409       .  A
C1071      S1075   1.804       .  S
C1072      C1073   1.412   1_556  A
C1073      C1074   1.403       .  A
C1073      H1080   1.083       .  S
C1074      S1076   1.803       .  S
S1075      H1078   1.407       .  S
S1076      H1077   1.407       .  S
C1081      C1082   1.400       .  A
C1081      C1086   1.411       .  A
C1082      C1083   1.405       .  A
C1082      H1091   1.083       .  S
C1083      C1084   1.419       .  A
C1083      S1087   1.804       .  S
C1084      C1085   1.401       .  A
C1085      C1086   1.385       .  A
C1085      H1092   1.084       .  S
C1086      S1088   1.801       .  S
S1087      H1090   1.406       .  S
S1088      H1089   1.404       .  S
C1093      C1094   1.406       .  A
C1093      C1098   1.423       .  A
C1094      C1095   1.405       .  A
C1094      H1103   1.084       .  S
C1095      C1096   1.421       .  A
C1095      S1099   1.800       .  S
C1096      C1097   1.401       .  A
C1097      C1098   1.400       .  A
C1097      H1104   1.082       .  S
C1098      S1100   1.810       .  S
S1099      H1102   1.408       .  S
S1100      H1101   1.407       .  S
C1105      C1106   1.409       .  A
C1105      C1110   1.410       .  A
C1106      C1107   1.400   1_545  A
C1106      H1115   1.084       .  S
C1107      C1108   1.406       .  A
C1107      S1111   1.796       .  S
C1108      C1109   1.410       .  A
C1109      C1110   1.410   1_565  A
C1109      H1116   1.083       .  S
C1110      S1112   1.802       .  S
S1111      H1114   1.407       .  S
S1112      H1113   1.407       .  S
C1117      C1118   1.413       .  A
C1117      C1122   1.413       .  A
C1118      C1119   1.398       .  A
C1118      H1127   1.081       .  S
C1119      C1120   1.404       .  A
C1119      S1123   1.803       .  S
C1120      C1121   1.411       .  A
C1121      C1122   1.417       .  A
C1121      H1128   1.083       .  S
C1122      S1124   1.802       .  S
S1123      H1126   1.406   1_556  S
S1124      H1125   1.407       .  S
C1129      C1130   1.403       .  A
C1129      C1134   1.417       .  A
C1130      C1131   1.394   1_556  A
C1130      H1139   1.083       .  S
C1131      C1132   1.412       .  A
C1131      S1135   1.808       .  S
C1132      C1133   1.400       .  A
C1133      C1134   1.401   1_554  A
C1133      H1140   1.082       .  S
C1134      S1136   1.799       .  S
S1135      H1138   1.407   1_554  S
S1136      H1137   1.408       .  S
C1141      C1142   1.397       .  A
C1141      C1146   1.413       .  A
C1142      C1143   1.411       .  A
C1142      H1151   1.083       .  S
C1143      C1144   1.420       .  A
C1143      S1147   1.796       .  S
C1144      C1145   1.403       .  A
C1145      C1146   1.407       .  A
C1145      H1152   1.083       .  S
C1146      S1148   1.802       .  S
S1147      H1150   1.407       .  S
S1148      H1149   1.409       .  S
C1153      C1154   1.401       .  A
C1153      C1158   1.409       .  A
C1154      C1155   1.401       .  A
C1154      H1163   1.084       .  S
C1155      C1156   1.413       .  A
C1155      S1159   1.805       .  S
C1156      C1157   1.406       .  A
C1157      C1158   1.395       .  A
C1157      H1164   1.084       .  S
C1158      S1160   1.808       .  S
S1159      H1162   1.407       .  S
S1160      H1161   1.401       .  S
C1165      C1166   1.402       .  A
C1165      C1170   1.414       .  A
C1166      C1167   1.404       .  A
C1166      H1175   1.084       .  S
C1167      C1168   1.413       .  A
C1167      S1171   1.794       .  S
C1168      C1169   1.397       .  A
C1169      C1170   1.401       .  A
C1169      H1176   1.083       .  S
C1170      S1172   1.801       .  S
S1171      H1174   1.405       .  S
S1172      H1173   1.407       .  S
C1177      C1178   1.416       .  A
C1177      C1182   1.403       .  A
C1178      C1179   1.413       .  A
C1178      H1187   1.083       .  S
C1179      C1180   1.411       .  A
C1179      S1183   1.797       .  S
C1180      C1181   1.420       .  A
C1181      C1182   1.402       .  A
C1181      H1188   1.084       .  S
C1182      S1184   1.800       .  S
S1183      H1186   1.407       .  S
S1184      H1185   1.405       .  S
C1189      C1190   1.405       .  A
C1189      C1194   1.415       .  A
C1190      C1191   1.396       .  A
C1190      H1199   1.083       .  S
C1191      C1192   1.407       .  A
C1191      S1195   1.807       .  S
C1192      C1193   1.398       .  A
C1193      C1194   1.397       .  A
C1193      H1200   1.083       .  S
C1194      S1196   1.803       .  S
S1195      H1198   1.405       .  S
S1196      H1197   1.408       .  S
C1201      C1202   1.400       .  A
C1201      C1206   1.418       .  A
C1202      C1203   1.399       .  A
C1202      H1211   1.084       .  S
C1203      C1204   1.418       .  A
C1203      S1207   1.805       .  S
C1204      C1205   1.401       .  A
C1205      C1206   1.401       .  A
C1205      H1212   1.084       .  S
C1206      S1208   1.802       .  S
S1207      H1210   1.407       .  S
S1208      H1209   1.407       .  S
C1213      C1214   1.404       .  A
C1213      C1218   1.424       .  A
C1214      C1215   1.409       .  A
C1214      H1223   1.083       .  S
C1215      C1216   1.409   1_565  A
C1215      S1219   1.801   1_565  S
C1216      C1217   1.397   1_545  A
C1217      C1218   1.403       .  A
C1217      H1224   1.083       .  S
C1218      S1220   1.798       .  S
S1219      H1222   1.407   1_545  S
S1220      H1221   1.408       .  S
C1225      C1226   1.400   1_556  A
C1225      C1230   1.409   1_556  A
C1226      C1227   1.403       .  A
C1226      H1235   1.084   1_554  S
C1227      C1228   1.421       .  A
C1227      S1231   1.801       .  S
C1228      C1229   1.402       .  A
C1229      C1230   1.392       .  A
C1229      H1236   1.083       .  S
C1230      S1232   1.804       .  S
S1231      H1234   1.408       .  S
S1232      H1233   1.407       .  S
C1237      C1238   1.397       .  A
C1237      C1242   1.410       .  A
C1238      C1239   1.400       .  A
C1238      H1247   1.081   1_554  S
C1239      C1240   1.418       .  A
C1239      S1243   1.797   1_554  S
C1240      C1241   1.403       .  A
C1241      C1242   1.408       .  A
C1241      H1248   1.083       .  S
C1242      S1244   1.803       .  S
S1243      H1246   1.407       .  S
S1244      H1245   1.407       .  S
C1249      C1250   1.411       .  A
C1249      C1254   1.407       .  A
C1250      C1251   1.406       .  A
C1250      H1259   1.078       .  S
C1251      C1252   1.402       .  A
C1251      S1255   1.805       .  S
C1252      C1253   1.411       .  A
C1253      C1254   1.402       .  A
C1253      H1260   1.082       .  S
C1254      S1256   1.801       .  S
S1255      H1258   1.406       .  S
S1256      H1257   1.402       .  S
C1261      C1262   1.402   1_455  A
C1261      C1266   1.426       .  A
C1262      C1263   1.404       .  A
C1262      H1271   1.082       .  S
C1263      C1264   1.426   1_554  A
C1263      S1267   1.813       .  S
C1264      C1265   1.402       .  A
C1265      C1266   1.407   1_656  A
C1265      H1272   1.082       .  S
C1266      S1268   1.811   1_554  S
S1267      H1270   1.406       .  S
S1268      H1269   1.406       .  S
C1273      C1274   1.400       .  A
C1273      C1278   1.412       .  A
C1274      C1275   1.409       .  A
C1274      H1283   1.080       .  S
C1275      C1276   1.422       .  A
C1275      S1279   1.808       .  S
C1276      C1277   1.404       .  A
C1277      C1278   1.391       .  A
C1277      H1284   1.084       .  S
C1278      S1280   1.800       .  S
S1279      H1282   1.406       .  S
S1280      H1281   1.403       .  S
C1285      C1286   1.403       .  A
C1285      C1290   1.416       .  A
C1286      C1287   1.395       .  A
C1286      H1295   1.086       .  S
C1287      C1288   1.421       .  A
C1287      S1291   1.802   1_655  S
C1288      C1289   1.412       .  A
C1289      C1290   1.417       .  A
C1289      H1296   1.083       .  S
C1290      S1292   1.800       .  S
S1291      H1294   1.408       .  S
S1292      H1293   1.405       .  S
C1297      C1298   1.404       .  A
C1297      C1302   1.422       .  A
C1298      C1299   1.402       .  A
C1298      H1307   1.084       .  S
C1299      C1300   1.422       .  A
C1299      S1303   1.802       .  S
C1300      C1301   1.404       .  A
C1301      C1302   1.404       .  A
C1301      H1308   1.084       .  S
C1302      S1304   1.803       .  S
S1303      H1306   1.407       .  S
S1304      H1305   1.408       .  S
C1309      C1310   1.400       .  A
C1309      C1314   1.411   1_545  A
C1310      C1311   1.401       .  A
C1310      H1319   1.084       .  S
C1311      C1312   1.420       .  A
C1311      S1315   1.802       .  S
C1312      C1313   1.405       .  A
C1313      C1314   1.395   1_545  A
C1313      H1320   1.083   1_545  S
C1314      S1316   1.800       .  S
S1315      H1318   1.408       .  S
S1316      H1317   1.405       .  S
C1321      C1322   1.408   1_545  A
C1321      C1326   1.413   1_545  A
C1322      C1323   1.396       .  A
C1322      H1331   1.083   1_565  S
C1323      C1324   1.410       .  A
C1323      S1327   1.797       .  S
C1324      C1325   1.413       .  A
C1325      C1326   1.410       .  A
C1325      H1332   1.082       .  S
C1326      S1328   1.808   1_565  S
S1327      H1330   1.404       .  S
S1328      H1329   1.407       .  S
C1333      C1334   1.399       .  A
C1333      C1338   1.413       .  A
C1334      C1335   1.407       .  A
C1334      H1343   1.082       .  S
C1335      C1336   1.418       .  A
C1335      S1339   1.794       .  S
C1336      C1337   1.401       .  A
C1337      C1338   1.400       .  A
C1337      H1344   1.084       .  S
C1338      S1340   1.800       .  S
S1339      H1342   1.406       .  S
S1340      H1341   1.408       .  S
C1345      C1346   1.407       .  A
C1345      C1350   1.411       .  A
C1346      C1347   1.415       .  A
C1346      H1355   1.083       .  S
C1347      C1348   1.421       .  A
C1347      S1351   1.798       .  S
C1348      C1349   1.409   1_545  A
C1349      C1350   1.396   1_565  A
C1349      H1356   1.084       .  S
C1350      S1352   1.806   1_545  S
S1351      H1354   1.407       .  S
S1352      H1353   1.406   1_565  S
C1357      C1358   1.401       .  A
C1357      C1362   1.408       .  A
C1358      C1359   1.392       .  A
C1358      H1367   1.085       .  S
C1359      C1360   1.416       .  A
C1359      S1363   1.802       .  S
C1360      C1361   1.410       .  A
C1361      C1362   1.406       .  A
C1361      H1368   1.083       .  S
C1362      S1364   1.804       .  S
S1363      H1366   1.408       .  S
S1364      H1365   1.407       .  S
C1369      C1370   1.397       .  A
C1369      C1374   1.413       .  A
C1370      C1371   1.402       .  A
C1370      H1379   1.077       .  S
C1371      C1372   1.418       .  A
C1371      S1375   1.797       .  S
C1372      C1373   1.402       .  A
C1373      C1374   1.403       .  A
C1373      H1380   1.084       .  S
C1374      S1376   1.800       .  S
S1375      H1378   1.406   1_554  S
S1376      H1377   1.407       .  S
C1381      C1382   1.400       .  A
C1381      C1386   1.412       .  A
C1382      C1383   1.405       .  A
C1382      H1391   1.079       .  S
C1383      C1384   1.418       .  A
C1383      S1387   1.795   1_554  S
C1384      C1385   1.403       .  A
C1385      C1386   1.411       .  A
C1385      H1392   1.083       .  S
C1386      S1388   1.802       .  S
S1387      H1390   1.407       .  S
S1388      H1389   1.407       .  S
C1393      C1394   1.397       .  A
C1393      C1398   1.405       .  A
C1394      C1395   1.391       .  A
C1394      H1403   1.082       .  S
C1395      C1396   1.408       .  A
C1395      S1399   1.805       .  S
C1396      C1397   1.403       .  A
C1397      C1398   1.399       .  A
C1397      H1404   1.084       .  S
C1398      S1400   1.804       .  S
S1399      H1402   1.407       .  S
S1400      H1401   1.407       .  S
C1405      C1406   1.397       .  A
C1405      C1410   1.407       .  A
C1406      C1407   1.400       .  A
C1406      H1415   1.084       .  S
C1407      C1408   1.420       .  A
C1407      S1411   1.802       .  S
C1408      C1409   1.398       .  A
C1409      C1410   1.385       .  A
C1409      H1416   1.084       .  S
C1410      S1412   1.797       .  S
S1411      H1414   1.402       .  S
S1412      H1413   1.406       .  S
C1417      C1418   1.399       .  A
C1417      C1422   1.416       .  A
C1418      C1419   1.403   1_655  A
C1418      H1427   1.083       .  S
C1419      C1420   1.417       .  A
C1419      S1423   1.799       .  S
C1420      C1421   1.399       .  A
C1421      C1422   1.404   1_455  A
C1421      H1428   1.083       .  S
C1422      S1424   1.808       .  S
S1423      H1426   1.405       .  S
S1424      H1425   1.407   1_655  S
C1429      C1430   1.403       .  A
C1429      C1434   1.411       .  A
C1430      C1431   1.402       .  A
C1430      H1439   1.083       .  S
C1431      C1432   1.409       .  A
C1431      S1435   1.794       .  S
C1432      C1433   1.410       .  A
C1433      C1434   1.408       .  A
C1433      H1440   1.084       .  S
C1434      S1436   1.804       .  S
S1435      H1438   1.407       .  S
S1436      H1437   1.404       .  S
C1441      C1442   1.413       .  A
C1441      C1446   1.406       .  A
C1442      C1443   1.399       .  A
C1442      H1451   1.076       .  S
C1443      C1444   1.403       .  A
C1443      S1447   1.799       .  S
C1444      C1445   1.418       .  A
C1445      C1446   1.407       .  A
C1445      H1452   1.083       .  S
C1446      S1448   1.799       .  S
S1447      H1450   1.407       .  S
S1448      H1449   1.405       .  S
C1453      C1454   1.400       .  A
C1453      C1458   1.413       .  A
C1454      C1455   1.393       .  A
C1454      H1463   1.084       .  S
C1455      C1456   1.410   1_554  A
C1455      S1459   1.799   1_655  S
C1456      C1457   1.397       .  A
C1457      C1458   1.396   1_556  A
C1457      H1464   1.084       .  S
C1458      S1460   1.799       .  S
S1459      H1462   1.405       .  S
S1460      H1461   1.406       .  S
C1465      C1466   1.397   1_554  A
C1465      C1470   1.408   1_554  A
C1466      C1467   1.395       .  A
C1466      H1475   1.083   1_556  S
C1467      C1468   1.415       .  A
C1467      S1471   1.803       .  S
C1468      C1469   1.404       .  A
C1469      C1470   1.397       .  A
C1469      H1476   1.083       .  S
C1470      S1472   1.807   1_566  S
S1471      H1474   1.408       .  S
S1472      H1473   1.407   1_554  S
C1477      C1478   1.405       .  A
C1477      C1482   1.422       .  A
C1478      C1479   1.407       .  A
C1478      H1487   1.084       .  S
C1479      C1480   1.413       .  A
C1479      S1483   1.802       .  S
C1480      C1481   1.393       .  A
C1481      C1482   1.398       .  A
C1481      H1488   1.083       .  S
C1482      S1484   1.806       .  S
S1483      H1486   1.408       .  S
S1484      H1485   1.407       .  S
C1489      C1490   1.409       .  A
C1489      C1494   1.410       .  A
C1490      C1491   1.406       .  A
C1490      H1499   1.082       .  S
C1491      C1492   1.407       .  A
C1491      S1495   1.802       .  S
C1492      C1493   1.404       .  A
C1493      C1494   1.404       .  A
C1493      H1500   1.084       .  S
C1494      S1496   1.795       .  S
S1495      H1498   1.406       .  S
S1496      H1497   1.407       .  S
C1501      C1502   1.402       .  A
C1501      C1506   1.405       .  A
C1502      C1503   1.395       .  A
C1502      H1511   1.085       .  S
C1503      C1504   1.407       .  A
C1503      S1507   1.805       .  S
C1504      C1505   1.403       .  A
C1505      C1506   1.400       .  A
C1505      H1512   1.084       .  S
C1506      S1508   1.806       .  S
S1507      H1510   1.405       .  S
S1508      H1509   1.407       .  S
C1513      C1514   1.398       .  A
C1513      C1518   1.401       .  A
C1514      C1515   1.398       .  A
C1514      H1523   1.083       .  S
C1515      C1516   1.417       .  A
C1515      S1519   1.807       .  S
C1516      C1517   1.410       .  A
C1517      C1518   1.392       .  A
C1517      H1524   1.084       .  S
C1518      S1520   1.799       .  S
S1519      H1522   1.406       .  S
S1520      H1521   1.403       .  S
C1525      C1526   1.408       .  A
C1525      C1530   1.410       .  A
C1526      C1527   1.413       .  A
C1526      H1535   1.084       .  S
C1527      C1528   1.417       .  A
C1527      S1531   1.800       .  S
C1528      C1529   1.404       .  A
C1529      C1530   1.393       .  A
C1529      H1536   1.084       .  S
C1530      S1532   1.799       .  S
S1531      H1534   1.407       .  S
S1532      H1533   1.405       .  S
C1537      C1538   1.409       .  A
C1537      C1542   1.419       .  A
C1538      C1539   1.397       .  A
C1538      H1547   1.083       .  S
C1539      C1540   1.412       .  A
C1539      S1543   1.799       .  S
C1540      C1541   1.407       .  A
C1541      C1542   1.408       .  A
C1541      H1548   1.084       .  S
C1542      S1544   1.800       .  S
S1543      H1546   1.407       .  S
S1544      H1545   1.408       .  S
C1549      C1550   1.412       .  A
C1549      C1554   1.413       .  A
C1550      C1551   1.405       .  A
C1550      H1559   1.083       .  S
C1551      C1552   1.407       .  A
C1551      S1555   1.800       .  S
C1552      C1553   1.408       .  A
C1553      C1554   1.408       .  A
C1553      H1560   1.083       .  S
C1554      S1556   1.799       .  S
S1555      H1558   1.407       .  S
S1556      H1557   1.403       .  S
C1561      C1562   1.406       .  A
C1561      C1566   1.408       .  A
C1562      C1563   1.414   1_455  A
C1562      H1571   1.084       .  S
C1563      C1564   1.419       .  A
C1563      S1567   1.796       .  S
C1564      C1565   1.411       .  A
C1565      C1566   1.395   1_655  A
C1565      H1572   1.084       .  S
C1566      S1568   1.807       .  S
S1567      H1570   1.407       .  S
S1568      H1569   1.408       .  S
C1573      C1574   1.408       .  A
C1573      C1578   1.414       .  A
C1574      C1575   1.398       .  A
C1574      H1583   1.084       .  S
C1575      C1576   1.408       .  A
C1575      S1579   1.800       .  S
C1576      C1577   1.402       .  A
C1577      C1578   1.392       .  A
C1577      H1584   1.085       .  S
C1578      S1580   1.804       .  S
S1579      H1582   1.406       .  S
S1580      H1581   1.403       .  S
C1585      C1586   1.403       .  A
C1585      C1590   1.409       .  A
C1586      C1587   1.403       .  A
C1586      H1595   1.083       .  S
C1587      C1588   1.410       .  A
C1587      S1591   1.805       .  S
C1588      C1589   1.401       .  A
C1589      C1590   1.391       .  A
C1589      H1596   1.080       .  S
C1590      S1592   1.802       .  S
S1591      H1594   1.407       .  S
S1592      H1593   1.406       .  S
C1597      C1598   1.409       .  A
C1597      C1602   1.415       .  A
C1598      C1599   1.421       .  A
C1598      H1607   1.082       .  S
C1599      C1600   1.415       .  A
C1599      S1603   1.805       .  S
C1600      C1601   1.395       .  A
C1601      C1602   1.392       .  A
C1601      H1608   1.085       .  S
C1602      S1604   1.787       .  S
S1603      H1606   1.407       .  S
S1604      H1605   1.402       .  S
C1609      C1610   1.408       .  A
C1609      C1614   1.406       .  A
C1610      C1611   1.407       .  A
C1610      H1619   1.084       .  S
C1611      C1612   1.411       .  A
C1611      S1615   1.801       .  S
C1612      C1613   1.408       .  A
C1613      C1614   1.402       .  A
C1613      H1620   1.083       .  S
C1614      S1616   1.801       .  S
S1615      H1618   1.407       .  S
S1616      H1617   1.407       .  S
C1621      C1622   1.403       .  A
C1621      C1626   1.411       .  A
C1622      C1623   1.403       .  A
C1622      H1631   1.084       .  S
C1623      C1624   1.416       .  A
C1623      S1627   1.800       .  S
C1624      C1625   1.402       .  A
C1625      C1626   1.382       .  A
C1625      H1632   1.084       .  S
C1626      S1628   1.804       .  S
S1627      H1630   1.408       .  S
S1628      H1629   1.401       .  S
C1633      C1634   1.404       .  A
C1633      C1638   1.414       .  A
C1634      C1635   1.400       .  A
C1634      H1643   1.084       .  S
C1635      C1636   1.406       .  A
C1635      S1639   1.794       .  S
C1636      C1637   1.400       .  A
C1637      C1638   1.394       .  A
C1637      H1644   1.084       .  S
C1638      S1640   1.804       .  S
S1639      H1642   1.408       .  S
S1640      H1641   1.403       .  S
C1645      C1646   1.399       .  A
C1645      C1650   1.428       .  A
C1646      C1647   1.404       .  A
C1646      H1655   1.083       .  S
C1647      C1648   1.417   1_655  A
C1647      S1651   1.805   1_655  S
C1648      C1649   1.393   1_455  A
C1649      C1650   1.402       .  A
C1649      H1656   1.082   1_655  S
C1650      S1652   1.801       .  S
S1651      H1654   1.407   1_455  S
S1652      H1653   1.407       .  S
C1657      C1658   1.404       .  A
C1657      C1662   1.412       .  A
C1658      C1659   1.390       .  A
C1658      H1667   1.085       .  S
C1659      C1660   1.411       .  A
C1659      S1663   1.802       .  S
C1660      C1661   1.409       .  A
C1661      C1662   1.405       .  A
C1661      H1668   1.084       .  S
C1662      S1664   1.801       .  S
S1663      H1666   1.407       .  S
S1664      H1665   1.401       .  S
C1669      C1670   1.402       .  A
C1669      C1674   1.415       .  A
C1670      C1671   1.400   1_565  A
C1670      H1679   1.084       .  S
C1671      C1672   1.412       .  A
C1671      S1675   1.802       .  S
C1672      C1673   1.400       .  A
C1673      C1674   1.400   1_545  A
C1673      H1680   1.084       .  S
C1674      S1676   1.803       .  S
S1675      H1678   1.406       .  S
S1676      H1677   1.408       .  S
C1681      C1682   1.405       .  A
C1681      C1686   1.431       .  A
C1682      C1683   1.410       .  A
C1682      H1691   1.083       .  S
C1683      C1684   1.418       .  A
C1683      S1687   1.804       .  S
C1684      C1685   1.393       .  A
C1685      C1686   1.396       .  A
C1685      H1692   1.086       .  S
C1686      S1688   1.807       .  S
S1687      H1690   1.407       .  S
S1688      H1689   1.408       .  S
C1693      C1694   1.407       .  A
C1693      C1698   1.417       .  A
C1694      C1695   1.398       .  A
C1694      H1703   1.084       .  S
C1695      C1696   1.410       .  A
C1695      S1699   1.803       .  S
C1696      C1697   1.400       .  A
C1697      C1698   1.384       .  A
C1697      H1704   1.083       .  S
C1698      S1700   1.814       .  S
S1699      H1702   1.405       .  S
S1700      H1701   1.407   1_545  S
C1705      C1706   1.400       .  A
C1705      C1710   1.412       .  A
C1706      C1707   1.388   1_455  A
C1706      H1715   1.085   1_455  S
C1707      C1708   1.408       .  A
C1707      S1711   1.803       .  S
C1708      C1709   1.398   1_655  A
C1709      C1710   1.394       .  A
C1709      H1716   1.082       .  S
C1710      S1712   1.800       .  S
S1711      H1714   1.405       .  S
S1712      H1713   1.406       .  S
C1717      C1718   1.407       .  A
C1717      C1722   1.410   1_556  A
C1718      C1719   1.404       .  A
C1718      H1727   1.084       .  S
C1719      C1720   1.407       .  A
C1719      S1723   1.803       .  S
C1720      C1721   1.403   1_556  A
C1721      C1722   1.402       .  A
C1721      H1728   1.084       .  S
C1722      S1724   1.801       .  S
S1723      H1726   1.407       .  S
S1724      H1725   1.406       .  S
C1729      C1730   1.405   1_545  A
C1729      C1734   1.414   1_546  A
C1730      C1731   1.395       .  A
C1730      H1739   1.084   1_565  S
C1731      C1732   1.413   1_556  A
C1731      S1735   1.804       .  S
C1732      C1733   1.406       .  A
C1733      C1734   1.406       .  A
C1733      H1740   1.083       .  S
C1734      S1736   1.808       .  S
S1735      H1738   1.408   1_556  S
S1736      H1737   1.407       .  S
C1741      C1742   1.410       .  A
C1741      C1746   1.413       .  A
C1742      C1743   1.416       .  A
C1742      H1751   1.084       .  S
C1743      C1744   1.416       .  A
C1743      S1747   1.804       .  S
C1744      C1745   1.397       .  A
C1745      C1746   1.390       .  A
C1745      H1752   1.084       .  S
C1746      S1748   1.797       .  S
S1747      H1750   1.404       .  S
S1748      H1749   1.403       .  S
C1753      C1754   1.412       .  A
C1753      C1758   1.412       .  A
C1754      C1755   1.395       .  A
C1754      H1763   1.083       .  S
C1755      C1756   1.405       .  A
C1755      S1759   1.806       .  S
C1756      C1757   1.402       .  A
C1757      C1758   1.393       .  A
C1757      H1764   1.085       .  S
C1758      S1760   1.799       .  S
S1759      H1762   1.401       .  S
S1760      H1761   1.406       .  S
C1765      C1766   1.400       .  A
C1765      C1770   1.412       .  A
C1766      C1767   1.400       .  A
C1766      H1775   1.081       .  S
C1767      C1768   1.416       .  A
C1767      S1771   1.808       .  S
C1768      C1769   1.403       .  A
C1769      C1770   1.388       .  A
C1769      H1776   1.084       .  S
C1770      S1772   1.802       .  S
S1771      H1774   1.407       .  S
S1772      H1773   1.400       .  S
C1777      C1778   1.403       .  A
C1777      C1782   1.420       .  A
C1778      C1779   1.406       .  A
C1778      H1787   1.083       .  S
C1779      C1780   1.409   1_655  A
C1779      S1783   1.800   1_655  S
C1780      C1781   1.397   1_455  A
C1781      C1782   1.404       .  A
C1781      H1788   1.082   1_655  S
C1782      S1784   1.795       .  S
S1783      H1786   1.407   1_455  S
S1784      H1785   1.406       .  S
C1789      C1790   1.400       .  A
C1789      C1794   1.416       .  A
C1790      C1791   1.404       .  A
C1790      H1799   1.084       .  S
C1791      C1792   1.415       .  A
C1791      S1795   1.799       .  S
C1792      C1793   1.399       .  A
C1793      C1794   1.406       .  A
C1793      H1800   1.083       .  S
C1794      S1796   1.800   1_545  S
S1795      H1798   1.406       .  S
S1796      H1797   1.407       .  S
C1801      C1802   1.412       .  A
C1801      C1806   1.412       .  A
C1802      C1803   1.400       .  A
C1802      H1811   1.082       .  S
C1803      C1804   1.405       .  A
C1803      S1807   1.803       .  S
C1804      C1805   1.410       .  A
C1805      C1806   1.412       .  A
C1805      H1812   1.083       .  S
C1806      S1808   1.798       .  S
S1807      H1810   1.406       .  S
S1808      H1809   1.407       .  S
C1813      C1814   1.401   1_566  A
C1813      C1818   1.412   1_556  A
C1814      C1815   1.399       .  A
C1814      H1823   1.082   1_554  S
C1815      C1816   1.416       .  A
C1815      S1819   1.801       .  S
C1816      C1817   1.403   1_545  A
C1817      C1818   1.388       .  A
C1817      H1824   1.084       .  S
C1818      S1820   1.799       .  S
S1819      H1822   1.408       .  S
S1820      H1821   1.399       .  S
C1825      C1826   1.405       .  A
C1825      C1830   1.420       .  A
C1826      C1827   1.393   1_455  A
C1826      H1835   1.084   1_455  S
C1827      C1828   1.409   1_656  A
C1827      S1831   1.800       .  S
C1828      C1829   1.398       .  A
C1829      C1830   1.402   1_554  A
C1829      H1836   1.081       .  S
C1830      S1832   1.808       .  S
S1831      H1834   1.404   1_556  S
S1832      H1833   1.407   1_556  S
C1837      C1838   1.409       .  A
C1837      C1842   1.410       .  A
C1838      C1839   1.417       .  A
C1838      H1847   1.083       .  S
C1839      C1840   1.413       .  A
C1839      S1843   1.803       .  S
C1840      C1841   1.401       .  A
C1841      C1842   1.390       .  A
C1841      H1848   1.083       .  S
C1842      S1844   1.798       .  S
S1843      H1846   1.407       .  S
S1844      H1845   1.406       .  S
C1849      C1850   1.405       .  A
C1849      C1854   1.412       .  A
C1850      C1851   1.399       .  A
C1850      H1859   1.084       .  S
C1851      C1852   1.416       .  A
C1851      S1855   1.803       .  S
C1852      C1853   1.408       .  A
C1853      C1854   1.403       .  A
C1853      H1860   1.082       .  S
C1854      S1856   1.809       .  S
S1855      H1858   1.408       .  S
S1856      H1857   1.406       .  S
C1861      C1862   1.407       .  A
C1861      C1866   1.404       .  A
C1862      C1863   1.403       .  A
C1862      H1871   1.083       .  S
C1863      C1864   1.410       .  A
C1863      S1867   1.803       .  S
C1864      C1865   1.410       .  A
C1865      C1866   1.403       .  A
C1865      H1872   1.083       .  S
C1866      S1868   1.801       .  S
S1867      H1870   1.407       .  S
S1868      H1869   1.407       .  S
C1873      C1874   1.408       .  A
C1873      C1878   1.411       .  A
C1874      C1875   1.392       .  A
C1874      H1883   1.084       .  S
C1875      C1876   1.404       .  A
C1875      S1879   1.797       .  S
C1876      C1877   1.406       .  A
C1877      C1878   1.402       .  A
C1877      H1884   1.084       .  S
C1878      S1880   1.809       .  S
S1879      H1882   1.406       .  S
S1880      H1881   1.407       .  S
C1885      C1886   1.412       .  A
C1885      C1890   1.420       .  A
C1886      C1887   1.395       .  A
C1886      H1895   1.083       .  S
C1887      C1888   1.403       .  A
C1887      S1891   1.801       .  S
C1888      C1889   1.398       .  A
C1889      C1890   1.395       .  A
C1889      H1896   1.085       .  S
C1890      S1892   1.799       .  S
S1891      H1894   1.401       .  S
S1892      H1893   1.397       .  S
C1897      C1898   1.406       .  A
C1897      C1902   1.406       .  A
C1898      C1899   1.404       .  A
C1898      H1907   1.085       .  S
C1899      C1900   1.412       .  A
C1899      S1903   1.798       .  S
C1900      C1901   1.411       .  A
C1901      C1902   1.399       .  A
C1901      H1908   1.085       .  S
C1902      S1904   1.805       .  S
S1903      H1906   1.406       .  S
S1904      H1905   1.406       .  S
C1909      C1910   1.407       .  A
C1909      C1914   1.402       .  A
C1910      C1911   1.410       .  A
C1910      H1919   1.084       .  S
C1911      C1912   1.414       .  A
C1911      S1915   1.798       .  S
C1912      C1913   1.407       .  A
C1913      C1914   1.395       .  A
C1913      H1920   1.080       .  S
C1914      S1916   1.805       .  S
S1915      H1918   1.401       .  S
S1916      H1917   1.407       .  S
C1921      C1922   1.408       .  A
C1921      C1926   1.406       .  A
C1922      C1923   1.411   1_655  A
C1922      H1931   1.084       .  S
C1923      C1924   1.418       .  A
C1923      S1927   1.798       .  S
C1924      C1925   1.415       .  A
C1925      C1926   1.397   1_455  A
C1925      H1932   1.083       .  S
C1926      S1928   1.806       .  S
S1927      H1930   1.407       .  S
S1928      H1929   1.406       .  S
C1933      C1934   1.398       .  A
C1933      C1938   1.404       .  A
C1934      C1935   1.399       .  A
C1934      H1943   1.083       .  S
C1935      C1936   1.422       .  A
C1935      S1939   1.812       .  S
C1936      C1937   1.411       .  A
C1937      C1938   1.399       .  A
C1937      H1944   1.084       .  S
C1938      S1940   1.801       .  S
S1939      H1942   1.406       .  S
S1940      H1941   1.404       .  S
C1945      C1946   1.398       .  A
C1945      C1950   1.409       .  A
C1946      C1947   1.393       .  A
C1946      H1955   1.085       .  S
C1947      C1948   1.411       .  A
C1947      S1951   1.801       .  S
C1948      C1949   1.398       .  A
C1949      C1950   1.395       .  A
C1949      H1956   1.082       .  S
C1950      S1952   1.807       .  S
S1951      H1954   1.406       .  S
S1952      H1953   1.406       .  S
C1957      C1958   1.406       .  A
C1957      C1962   1.403       .  A
C1958      C1959   1.405   1_655  A
C1958      H1967   1.082       .  S
C1959      C1960   1.412       .  A
C1959      S1963   1.801       .  S
C1960      C1961   1.411       .  A
C1961      C1962   1.404   1_455  A
C1961      H1968   1.082       .  S
C1962      S1964   1.799       .  S
S1963      H1966   1.406       .  S
S1964      H1965   1.407   1_655  S
C1969      C1970   1.407       .  A
C1969      C1974   1.411       .  A
C1970      C1971   1.396       .  A
C1970      H1979   1.084       .  S
C1971      C1972   1.412       .  A
C1971      S1975   1.799       .  S
C1972      C1973   1.410       .  A
C1973      C1974   1.403       .  A
C1973      H1980   1.084       .  S
C1974      S1976   1.802       .  S
S1975      H1978   1.406       .  S
S1976      H1977   1.407       .  S
C1981      C1982   1.401       .  A
C1981      C1986   1.414       .  A
C1982      C1983   1.402       .  A
C1982      H1991   1.084       .  S
C1983      C1984   1.412   1_565  A
C1983      S1987   1.801   1_565  S
C1984      C1985   1.398   1_545  A
C1985      C1986   1.405       .  A
C1985      H1992   1.083   1_565  S
C1986      S1988   1.798       .  S
S1987      H1990   1.408       .  S
S1988      H1989   1.407       .  S
C1993      C1994   1.406       .  A
C1993      C1998   1.415       .  A
C1994      C1995   1.392   1_655  A
C1994      H2003   1.084       .  S
C1995      C1996   1.409       .  A
C1995      S1999   1.801       .  S
C1996      C1997   1.399   1_455  A
C1997      C1998   1.398       .  A
C1997      H2004   1.083       .  S
C1998      S2000   1.803       .  S
S1999      H2002   1.404       .  S
S2000      H2001   1.408       .  S
C2005      C2006   1.399       .  A
C2005      C2010   1.411       .  A
C2006      C2007   1.399       .  A
C2006      H2015   1.083       .  S
C2007      C2008   1.418       .  A
C2007      S2011   1.806       .  S
C2008      C2009   1.403       .  A
C2009      C2010   1.389       .  A
C2009      H2016   1.084       .  S
C2010      S2012   1.802       .  S
S2011      H2014   1.406       .  S
S2012      H2013   1.405       .  S
C2017      C2018   1.410       .  A
C2017      C2022   1.410       .  A
C2018      C2019   1.408       .  A
C2018      H2027   1.081       .  S
C2019      C2020   1.409       .  A
C2019      S2023   1.802       .  S
C2020      C2021   1.408       .  A
C2021      C2022   1.402       .  A
C2021      H2028   1.083       .  S
C2022      S2024   1.803       .  S
S2023      H2026   1.404       .  S
S2024      H2025   1.407       .  S
C2029      C2030   1.409       .  A
C2029      C2034   1.411       .  A
C2030      C2031   1.403       .  A
C2030      H2039   1.084       .  S
C2031      C2032   1.409       .  A
C2031      S2035   1.802       .  S
C2032      C2033   1.407       .  A
C2033      C2034   1.404       .  A
C2033      H2040   1.082       .  S
C2034      S2036   1.801       .  S
S2035      H2038   1.407       .  S
S2036      H2037   1.407       .  S
C2041      C2042   1.416       .  A
C2041      C2046   1.414       .  A
C2042      C2043   1.396       .  A
C2042      H2051   1.082       .  S
C2043      C2044   1.403       .  A
C2043      S2047   1.805       .  S
C2044      C2045   1.411       .  A
C2045      C2046   1.414       .  A
C2045      H2052   1.083       .  S
C2046      S2048   1.795       .  S
S2047      H2050   1.405       .  S
S2048      H2049   1.407       .  S
C2053      C2054   1.411       .  A
C2053      C2058   1.411       .  A
C2054      C2055   1.402       .  A
C2054      H2063   1.084       .  S
C2055      C2056   1.411       .  A
C2055      S2059   1.801       .  S
C2056      C2057   1.411       .  A
C2057      C2058   1.399       .  A
C2057      H2064   1.084       .  S
C2058      S2060   1.802       .  S
S2059      H2062   1.407       .  S
S2060      H2061   1.407       .  S
C2065      C2066   1.398       .  A
C2065      C2070   1.410       .  A
C2066      C2067   1.398       .  A
C2066      H2075   1.082       .  S
C2067      C2068   1.417       .  A
C2067      S2071   1.800       .  S
C2068      C2069   1.404       .  A
C2069      C2070   1.398       .  A
C2069      H2076   1.083       .  S
C2070      S2072   1.808       .  S
S2071      H2074   1.407       .  S
S2072      H2073   1.407       .  S
C2077      C2078   1.403       .  A
C2077      C2082   1.411       .  A
C2078      C2079   1.398       .  A
C2078      H2087   1.084       .  S
C2079      C2080   1.407       .  A
C2079      S2083   1.801       .  S
C2080      C2081   1.402       .  A
C2081      C2082   1.396       .  A
C2081      H2088   1.085       .  S
C2082      S2084   1.804       .  S
S2083      H2086   1.407       .  S
S2084      H2085   1.404       .  S
